
     RDKit          3D

 31 33  0  0  0  0  0  0  0  0999 V2000
   -9.0383   -1.3056    0.9684 C   0  0  0  0  0  0  0  0  0  0  0  0
   -8.1944   -2.3736    0.6697 C   0  0  0  0  0  0  0  0  0  0  0  0
   -7.0538   -2.1673   -0.1079 C   0  0  0  0  0  0  0  0  0  0  0  0
   -6.7403   -0.8893   -0.5967 C   0  0  0  0  0  0  0  0  0  0  0  0
   -7.6025    0.1750   -0.2897 C   0  0  0  0  0  0  0  0  0  0  0  0
   -8.7444   -0.0318    0.4880 C   0  0  0  0  0  0  0  0  0  0  0  0
   -5.5409   -0.6714   -1.4209 C   0  0  0  0  0  0  0  0  0  0  0  0
   -5.7042   -0.5697   -2.8140 C   0  0  0  0  0  0  0  0  0  0  0  0
   -4.6117   -0.3824   -3.6549 C   0  0  0  0  0  0  0  0  0  0  0  0
   -3.3323   -0.3066   -3.1183 C   0  0  0  0  0  0  0  0  0  0  0  0
   -3.1244   -0.4151   -1.7309 C   0  0  0  0  0  0  0  0  0  0  0  0
   -4.2399   -0.5663   -0.8670 C   0  0  0  0  0  0  0  0  0  0  0  0
   -4.0361   -0.6695    0.6270 C   0  0  0  0  0  0  0  0  0  0  0  0
   -1.7024   -0.3345   -1.2157 C   0  0  0  0  0  0  0  0  0  0  0  0
   -1.4682    1.0040   -0.7780 O   0  0  0  0  0  0  0  0  0  0  0  0
   -0.2231    1.1908   -0.2236 C   0  0  0  0  0  0  0  0  0  0  0  0
    0.0181    2.4356    0.3314 C   0  0  0  0  0  0  0  0  0  0  0  0
    1.2659    2.6821    0.8962 C   0  0  0  0  0  0  0  0  0  0  0  0
    2.2374    1.6752    0.8856 C   0  0  0  0  0  0  0  0  0  0  0  0
    1.8849    0.4542    0.3088 C   0  0  0  0  0  0  0  0  0  0  0  0
    0.6908    0.1987   -0.2551 N   0  0  0  0  0  0  0  0  0  0  0  0
    3.5915    1.8887    1.4878 C   0  0  0  0  0  0  0  0  0  0  0  0
    4.7160    1.6858    0.5372 N   0  0  0  0  0  0  0  0  0  0  0  0
    2.8730   -0.5173    0.2700 O   0  0  0  0  0  0  0  0  0  0  0  0
    2.3772   -1.7905   -0.1529 C   0  0  0  0  0  0  0  0  0  0  0  0
    4.8308    2.6609   -0.5883 C   0  0  0  0  0  0  0  0  0  0  0  0
    6.1808    2.5110   -1.3161 C   0  0  0  0  0  0  0  0  0  0  0  0
    7.3285    3.1027   -0.6351 N   0  0  0  0  0  0  0  0  0  0  0  0
    7.7413    2.7610    0.6283 C   0  0  0  0  0  0  0  0  0  0  0  0
    9.0396    3.3853    1.0561 C   0  0  0  0  0  0  0  0  0  0  0  0
    7.0861    2.0046    1.3424 O   0  0  0  0  0  0  0  0  0  0  0  0
  1  2  2  0
  1  6  1  0
  2  3  1  0
  3  4  2  0
  4  5  1  0
  4  7  1  0
  5  6  2  0
  7  8  2  0
  7 12  1  0
  8  9  1  0
  9 10  2  0
 10 11  1  0
 11 12  2  0
 11 14  1  0
 12 13  1  0
 14 15  1  0
 15 16  1  0
 16 17  2  0
 16 21  1  0
 17 18  1  0
 18 19  2  0
 19 20  1  0
 19 22  1  0
 20 21  2  0
 20 24  1  0
 22 23  1  0
 23 26  1  0
 24 25  1  0
 26 27  1  0
 27 28  1  0
 28 29  1  0
 29 30  1  0
 29 31  2  0
M  CHG  1  23   1
M  END
>  <Energy>  (1) 
0.8048489666136724

$$$$
