PD1-PDL1.sdf
     RDKit          3D

 72 75  0  0  0  0  0  0  0  0999 V2000
    8.5531    0.3140    1.1657 C   0  0  0  0  0  0  0  0  0  0  0  0
    7.5467   -0.5970    0.8320 C   0  0  0  0  0  0  0  0  0  0  0  0
    6.3956   -0.1556    0.1705 C   0  0  0  0  0  0  0  0  0  0  0  0
    6.2342    1.1994   -0.1611 C   0  0  0  0  0  0  0  0  0  0  0  0
    7.2562    2.1028    0.1705 C   0  0  0  0  0  0  0  0  0  0  0  0
    8.4083    1.6643    0.8333 C   0  0  0  0  0  0  0  0  0  0  0  0
    5.0332    1.6617   -0.8780 C   0  0  0  0  0  0  0  0  0  0  0  0
    5.2256    2.2944   -2.1139 C   0  0  0  0  0  0  0  0  0  0  0  0
    4.1423    2.7115   -2.8823 C   0  0  0  0  0  0  0  0  0  0  0  0
    2.8460    2.4975   -2.4225 C   0  0  0  0  0  0  0  0  0  0  0  0
    2.6129    1.8842   -1.1820 C   0  0  0  0  0  0  0  0  0  0  0  0
    3.7148    1.4731   -0.3855 C   0  0  0  0  0  0  0  0  0  0  0  0
    3.4837    0.8388    0.9765 C   0  0  0  0  0  0  0  0  0  0  0  0
    1.1775    1.6710   -0.7573 C   0  0  0  0  0  0  0  0  0  0  0  0
    0.9091    0.2266   -0.7947 N   0  0  0  0  0  0  0  0  0  0  0  0
   -0.3152   -0.3824   -0.5205 C   0  0  0  0  0  0  0  0  0  0  0  0
   -1.3737    0.3403    0.0386 C   0  0  0  0  0  0  0  0  0  0  0  0
   -2.6143   -0.2623    0.3113 C   0  0  0  0  0  0  0  0  0  0  0  0
   -2.7740   -1.6210    0.0061 C   0  0  0  0  0  0  0  0  0  0  0  0
   -1.7135   -2.3545   -0.5411 C   0  0  0  0  0  0  0  0  0  0  0  0
   -0.4808   -1.7474   -0.8051 C   0  0  0  0  0  0  0  0  0  0  0  0
    0.6421   -2.5710   -1.3922 C   0  0  0  0  0  0  0  0  0  0  0  0
   -4.0705   -2.3190    0.2733 C   0  0  0  0  0  0  0  0  0  0  0  0
   -3.8873   -3.0242    1.5424 N   0  0  0  0  0  4  0  0  0  0  0  0
   -3.7001    0.3865    0.8630 O   0  0  0  0  0  0  0  0  0  0  0  0
   -3.5820    1.7569    1.2827 C   0  0  0  0  0  0  0  0  0  0  0  0
   -3.5935    2.7006    0.1029 C   0  0  0  0  0  0  0  0  0  0  0  0
   -4.4446    2.4888   -0.9862 C   0  0  0  0  0  0  0  0  0  0  0  0
   -4.4018    3.3896   -2.0498 C   0  0  0  0  0  0  0  0  0  0  0  0
   -3.5150    4.4676   -1.9909 C   0  0  0  0  0  0  0  0  0  0  0  0
   -2.6984    4.6759   -0.9426 N   0  0  0  0  0  0  0  0  0  0  0  0
   -2.7417    3.8128    0.0836 C   0  0  0  0  0  0  0  0  0  0  0  0
   -4.6839   -4.2824    1.6487 C   0  0  1  0  0  0  0  0  0  0  0  0
   -3.9005   -5.5220    1.1756 C   0  0  0  0  0  0  0  0  0  0  0  0
   -2.6762   -5.3322    0.9481 O   0  0  0  0  0  1  0  0  0  0  0  0
   -4.4968   -6.6172    1.0871 O   0  0  0  0  0  0  0  0  0  0  0  0
   -5.0792   -4.4983    3.1085 C   0  0  0  0  0  0  0  0  0  0  0  0
   -5.4456   -3.2358    3.6879 O   0  0  0  0  0  0  0  0  0  0  0  0
   -5.2454    3.2242   -3.1909 C   0  0  0  0  0  0  0  0  0  0  0  0
   -5.9333    3.0949   -4.1214 N   0  0  0  0  0  0  0  0  0  0  0  0
    9.4468   -0.0276    1.6798 H   0  0  0  0  0  0  0  0  0  0  0  0
    7.6596   -1.6479    1.0816 H   0  0  0  0  0  0  0  0  0  0  0  0
    5.6238   -0.8707   -0.0973 H   0  0  0  0  0  0  0  0  0  0  0  0
    7.1492    3.1539   -0.0805 H   0  0  0  0  0  0  0  0  0  0  0  0
    9.1901    2.3733    1.0892 H   0  0  0  0  0  0  0  0  0  0  0  0
    6.2330    2.4418   -2.4923 H   0  0  0  0  0  0  0  0  0  0  0  0
    4.3085    3.1885   -3.8440 H   0  0  0  0  0  0  0  0  0  0  0  0
    2.0131    2.8129   -3.0444 H   0  0  0  0  0  0  0  0  0  0  0  0
    4.3375    0.9954    1.6411 H   0  0  0  0  0  0  0  0  0  0  0  0
    3.3197   -0.2366    0.8639 H   0  0  0  0  0  0  0  0  0  0  0  0
    2.6161    1.2706    1.4795 H   0  0  0  0  0  0  0  0  0  0  0  0
    0.4966    2.1948   -1.4374 H   0  0  0  0  0  0  0  0  0  0  0  0
    1.0161    2.0789    0.2450 H   0  0  0  0  0  0  0  0  0  0  0  0
    1.6157   -0.3480   -1.2514 H   0  0  0  0  0  0  0  0  0  0  0  0
   -1.2150    1.3846    0.2564 H   0  0  0  0  0  0  0  0  0  0  0  0
   -1.8487   -3.4136   -0.7561 H   0  0  0  0  0  0  0  0  0  0  0  0
    0.3536   -3.6228   -1.4866 H   0  0  0  0  0  0  0  0  0  0  0  0
    0.9036   -2.1968   -2.3868 H   0  0  0  0  0  0  0  0  0  0  0  0
    1.5263   -2.5180   -0.7495 H   0  0  0  0  0  0  0  0  0  0  0  0
   -4.8973   -1.6009    0.3278 H   0  0  0  0  0  0  0  0  0  0  0  0
   -4.2858   -3.0238   -0.5393 H   0  0  0  0  0  0  0  0  0  0  0  0
   -4.1317   -2.4128    2.3255 H   0  0  0  0  0  0  0  0  0  0  0  0
   -2.8965   -3.2914    1.6121 H   0  0  0  0  0  0  0  0  0  0  0  0
   -4.4342    1.9960    1.9271 H   0  0  0  0  0  0  0  0  0  0  0  0
   -2.6797    1.8938    1.8890 H   0  0  0  0  0  0  0  0  0  0  0  0
   -5.1195    1.6351   -1.0088 H   0  0  0  0  0  0  0  0  0  0  0  0
   -3.4805    5.1687   -2.8201 H   0  0  0  0  0  0  0  0  0  0  0  0
   -2.0808    3.9858    0.9279 H   0  0  0  0  0  0  0  0  0  0  0  0
   -5.5907   -4.2123    1.0424 H   0  0  0  0  0  0  0  0  0  0  0  0
   -5.9157   -5.2038    3.1633 H   0  0  0  0  0  0  0  0  0  0  0  0
   -4.2404   -4.9240    3.6710 H   0  0  0  0  0  0  0  0  0  0  0  0
   -5.8069   -3.3782    4.5823 H   0  0  0  0  0  0  0  0  0  0  0  0
  1  2  2  0
  1  6  1  0
  2  3  1  0
  3  4  2  0
  4  5  1  0
  4  7  1  0
  5  6  2  0
  7  8  2  0
  7 12  1  0
  8  9  1  0
  9 10  2  0
 10 11  1  0
 11 12  2  0
 11 14  1  0
 12 13  1  0
 14 15  1  0
 15 16  1  0
 16 17  2  0
 16 21  1  0
 17 18  1  0
 18 19  2  0
 18 25  1  0
 19 20  1  0
 19 23  1  0
 20 21  2  0
 21 22  1  0
 23 24  1  0
 24 33  1  0
 25 26  1  0
 26 27  1  0
 27 28  2  0
 27 32  1  0
 28 29  1  0
 29 30  2  0
 29 39  1  0
 30 31  1  0
 31 32  2  0
 33 34  1  0
 33 37  1  0
 34 35  1  0
 34 36  2  0
 37 38  1  0
 39 40  3  0
  1 41  1  0
  2 42  1  0
  3 43  1  0
  5 44  1  0
  6 45  1  0
  8 46  1  0
  9 47  1  0
 10 48  1  0
 13 49  1  0
 13 50  1  0
 13 51  1  0
 14 52  1  0
 14 53  1  0
 15 54  1  0
 17 55  1  0
 20 56  1  0
 22 57  1  0
 22 58  1  0
 22 59  1  0
 23 60  1  0
 23 61  1  0
 24 62  1  0
 24 63  1  0
 26 64  1  0
 26 65  1  0
 28 66  1  0
 30 67  1  0
 32 68  1  0
 33 69  1  6
 37 70  1  0
 37 71  1  0
 38 72  1  0
M  CHG  2  24   1  35  -1
M  END
>  <%C>  (1) 
98.790520000000001

>  <mol_id>  (1) 
4

>  <isomer_id>  (1) 
1

>  <CID>  (1) 
10

>  <Energy>  (1) 
87.06028951720414

$$$$
