PD1-PDL1.sdf
     RDKit          3D

 72 75  0  0  0  0  0  0  0  0999 V2000
    8.4495   -0.1939   -3.2274 C   0  0  0  0  0  0  0  0  0  0  0  0
    7.9557    1.1097   -3.3440 C   0  0  0  0  0  0  0  0  0  0  0  0
    7.0875    1.6182   -2.3711 C   0  0  0  0  0  0  0  0  0  0  0  0
    6.7077    0.8283   -1.2780 C   0  0  0  0  0  0  0  0  0  0  0  0
    7.2096   -0.4755   -1.1647 C   0  0  0  0  0  0  0  0  0  0  0  0
    8.0767   -0.9869   -2.1371 C   0  0  0  0  0  0  0  0  0  0  0  0
    5.7998    1.3637   -0.2611 C   0  0  0  0  0  0  0  0  0  0  0  0
    6.3720    2.0468    0.8183 C   0  0  0  0  0  0  0  0  0  0  0  0
    5.5726    2.5915    1.8207 C   0  0  0  0  0  0  0  0  0  0  0  0
    4.1877    2.4591    1.7477 C   0  0  0  0  0  0  0  0  0  0  0  0
    3.5838    1.7861    0.6746 C   0  0  0  0  0  0  0  0  0  0  0  0
    4.3928    1.2192   -0.3424 C   0  0  0  0  0  0  0  0  0  0  0  0
    3.7487    0.4878   -1.5075 C   0  0  0  0  0  0  0  0  0  0  0  0
    2.0775    1.6775    0.6658 C   0  0  0  0  0  0  0  0  0  0  0  0
    1.7373    0.3974    1.2999 N   0  0  0  0  0  0  0  0  0  0  0  0
    0.4505   -0.1094    1.4787 C   0  0  0  0  0  0  0  0  0  0  0  0
   -0.6789    0.6486    1.1541 C   0  0  0  0  0  0  0  0  0  0  0  0
   -1.9688    0.1407    1.3427 C   0  0  0  0  0  0  0  0  0  0  0  0
   -2.1304   -1.1455    1.8706 C   0  0  0  0  0  0  0  0  0  0  0  0
   -1.0042   -1.9088    2.2014 C   0  0  0  0  0  0  0  0  0  0  0  0
    0.2885   -1.4024    2.0079 C   0  0  0  0  0  0  0  0  0  0  0  0
    1.4837   -2.2519    2.3731 C   0  0  0  0  0  0  0  0  0  0  0  0
   -3.5095   -1.7033    2.0458 C   0  0  0  0  0  0  0  0  0  0  0  0
   -3.7446   -2.5737    0.8908 N   0  0  0  0  0  4  0  0  0  0  0  0
   -3.0877    0.8807    1.0644 O   0  0  0  0  0  0  0  0  0  0  0  0
   -3.1592    1.4269   -0.2609 C   0  0  0  0  0  0  0  0  0  0  0  0
   -4.5540    1.9452   -0.4900 C   0  0  0  0  0  0  0  0  0  0  0  0
   -5.2767    1.5979   -1.6365 C   0  0  0  0  0  0  0  0  0  0  0  0
   -6.5588    2.1219   -1.7985 C   0  0  0  0  0  0  0  0  0  0  0  0
   -7.0790    2.9560   -0.8072 C   0  0  0  0  0  0  0  0  0  0  0  0
   -6.3897    3.2940    0.2977 N   0  0  0  0  0  0  0  0  0  0  0  0
   -5.1529    2.7923    0.4515 C   0  0  0  0  0  0  0  0  0  0  0  0
   -5.1559   -2.5713    0.4095 C   0  0  1  0  0  0  0  0  0  0  0  0
   -5.3095   -1.7866   -0.9055 C   0  0  0  0  0  0  0  0  0  0  0  0
   -4.2308   -1.5284   -1.5055 O   0  0  0  0  0  1  0  0  0  0  0  0
   -6.4542   -1.4940   -1.3109 O   0  0  0  0  0  0  0  0  0  0  0  0
   -5.6017   -4.0121    0.1542 C   0  0  0  0  0  0  0  0  0  0  0  0
   -4.9986   -4.8811    1.1285 O   0  0  0  0  0  0  0  0  0  0  0  0
   -7.3418    1.8303   -2.9580 C   0  0  0  0  0  0  0  0  0  0  0  0
   -7.9880    1.6395   -3.9089 N   0  0  0  0  0  0  0  0  0  0  0  0
    9.1222   -0.5895   -3.9829 H   0  0  0  0  0  0  0  0  0  0  0  0
    8.2455    1.7275   -4.1890 H   0  0  0  0  0  0  0  0  0  0  0  0
    6.7036    2.6300   -2.4615 H   0  0  0  0  0  0  0  0  0  0  0  0
    6.9202   -1.0907   -0.3180 H   0  0  0  0  0  0  0  0  0  0  0  0
    8.4603   -1.9988   -2.0451 H   0  0  0  0  0  0  0  0  0  0  0  0
    7.4517    2.1533    0.8725 H   0  0  0  0  0  0  0  0  0  0  0  0
    6.0273    3.1192    2.6542 H   0  0  0  0  0  0  0  0  0  0  0  0
    3.5753    2.8855    2.5375 H   0  0  0  0  0  0  0  0  0  0  0  0
    4.4645   -0.1246   -2.0610 H   0  0  0  0  0  0  0  0  0  0  0  0
    2.9595   -0.1819   -1.1549 H   0  0  0  0  0  0  0  0  0  0  0  0
    3.3122    1.2111   -2.2024 H   0  0  0  0  0  0  0  0  0  0  0  0
    1.6386    2.5102    1.2262 H   0  0  0  0  0  0  0  0  0  0  0  0
    1.6891    1.7253   -0.3568 H   0  0  0  0  0  0  0  0  0  0  0  0
    2.5193   -0.2046    1.5510 H   0  0  0  0  0  0  0  0  0  0  0  0
   -0.5640    1.6538    0.7713 H   0  0  0  0  0  0  0  0  0  0  0  0
   -1.1326   -2.9056    2.6124 H   0  0  0  0  0  0  0  0  0  0  0  0
    2.0833   -1.7492    3.1384 H   0  0  0  0  0  0  0  0  0  0  0  0
    2.1083   -2.4236    1.4906 H   0  0  0  0  0  0  0  0  0  0  0  0
    1.1734   -3.2246    2.7666 H   0  0  0  0  0  0  0  0  0  0  0  0
   -4.2385   -0.8835    2.0698 H   0  0  0  0  0  0  0  0  0  0  0  0
   -3.5930   -2.2537    2.9899 H   0  0  0  0  0  0  0  0  0  0  0  0
   -3.1701   -2.2341    0.1037 H   0  0  0  0  0  0  0  0  0  0  0  0
   -3.4881   -3.5381    1.1113 H   0  0  0  0  0  0  0  0  0  0  0  0
   -2.9113    0.6599   -1.0035 H   0  0  0  0  0  0  0  0  0  0  0  0
   -2.4477    2.2500   -0.3794 H   0  0  0  0  0  0  0  0  0  0  0  0
   -4.8646    0.9192   -2.3827 H   0  0  0  0  0  0  0  0  0  0  0  0
   -8.0794    3.3601   -0.9335 H   0  0  0  0  0  0  0  0  0  0  0  0
   -4.5968    3.0617    1.3447 H   0  0  0  0  0  0  0  0  0  0  0  0
   -5.8168   -2.1135    1.1505 H   0  0  0  0  0  0  0  0  0  0  0  0
   -6.6942   -4.0711    0.2072 H   0  0  0  0  0  0  0  0  0  0  0  0
   -5.2961   -4.3343   -0.8481 H   0  0  0  0  0  0  0  0  0  0  0  0
   -5.3680   -5.7794    1.0387 H   0  0  0  0  0  0  0  0  0  0  0  0
  1  2  2  0
  1  6  1  0
  2  3  1  0
  3  4  2  0
  4  5  1  0
  4  7  1  0
  5  6  2  0
  7  8  2  0
  7 12  1  0
  8  9  1  0
  9 10  2  0
 10 11  1  0
 11 12  2  0
 11 14  1  0
 12 13  1  0
 14 15  1  0
 15 16  1  0
 16 17  2  0
 16 21  1  0
 17 18  1  0
 18 19  2  0
 18 25  1  0
 19 20  1  0
 19 23  1  0
 20 21  2  0
 21 22  1  0
 23 24  1  0
 24 33  1  0
 25 26  1  0
 26 27  1  0
 27 28  2  0
 27 32  1  0
 28 29  1  0
 29 30  2  0
 29 39  1  0
 30 31  1  0
 31 32  2  0
 33 34  1  0
 33 37  1  0
 34 35  1  0
 34 36  2  0
 37 38  1  0
 39 40  3  0
  1 41  1  0
  2 42  1  0
  3 43  1  0
  5 44  1  0
  6 45  1  0
  8 46  1  0
  9 47  1  0
 10 48  1  0
 13 49  1  0
 13 50  1  0
 13 51  1  0
 14 52  1  0
 14 53  1  0
 15 54  1  0
 17 55  1  0
 20 56  1  0
 22 57  1  0
 22 58  1  0
 22 59  1  0
 23 60  1  0
 23 61  1  0
 24 62  1  0
 24 63  1  0
 26 64  1  0
 26 65  1  0
 28 66  1  0
 30 67  1  0
 32 68  1  0
 33 69  1  1
 37 70  1  0
 37 71  1  0
 38 72  1  0
M  CHG  2  24   1  35  -1
M  END
>  <%C>  (1) 
98.790520000000001

>  <mol_id>  (1) 
4

>  <isomer_id>  (1) 
1

>  <CID>  (1) 
10

>  <Energy>  (1) 
87.06028951720414

$$$$
