PD1-PDL1.sdf
     RDKit          3D

 72 75  0  0  0  0  0  0  0  0999 V2000
    7.7554    3.5106   -2.5878 C   0  0  0  0  0  0  0  0  0  0  0  0
    6.8058    4.0991   -1.7478 C   0  0  0  0  0  0  0  0  0  0  0  0
    6.1095    3.3151   -0.8211 C   0  0  0  0  0  0  0  0  0  0  0  0
    6.3484    1.9343   -0.7256 C   0  0  0  0  0  0  0  0  0  0  0  0
    7.3119    1.3576   -1.5694 C   0  0  0  0  0  0  0  0  0  0  0  0
    8.0098    2.1391   -2.4972 C   0  0  0  0  0  0  0  0  0  0  0  0
    5.6340    1.1069    0.2645 C   0  0  0  0  0  0  0  0  0  0  0  0
    6.4130    0.3686    1.1673 C   0  0  0  0  0  0  0  0  0  0  0  0
    5.8213   -0.4154    2.1538 C   0  0  0  0  0  0  0  0  0  0  0  0
    4.4345   -0.4638    2.2571 C   0  0  0  0  0  0  0  0  0  0  0  0
    3.6211    0.2600    1.3733 C   0  0  0  0  0  0  0  0  0  0  0  0
    4.2172    1.0366    0.3454 C   0  0  0  0  0  0  0  0  0  0  0  0
    3.3461    1.7619   -0.6661 C   0  0  0  0  0  0  0  0  0  0  0  0
    2.1254    0.1558    1.5560 C   0  0  0  0  0  0  0  0  0  0  0  0
    1.6526   -0.9148    0.6693 N   0  0  0  0  0  0  0  0  0  0  0  0
    0.3152   -1.1745    0.3772 C   0  0  0  0  0  0  0  0  0  0  0  0
   -0.7057   -0.7099    1.2107 C   0  0  0  0  0  0  0  0  0  0  0  0
   -2.0477   -0.9798    0.9308 C   0  0  0  0  0  0  0  0  0  0  0  0
   -2.3775   -1.7468   -0.1999 C   0  0  0  0  0  0  0  0  0  0  0  0
   -1.3558   -2.2129   -1.0366 C   0  0  0  0  0  0  0  0  0  0  0  0
   -0.0102   -1.9337   -0.7598 C   0  0  0  0  0  0  0  0  0  0  0  0
    1.0650   -2.4550   -1.6856 C   0  0  0  0  0  0  0  0  0  0  0  0
   -3.8078   -2.0531   -0.5442 C   0  0  0  0  0  0  0  0  0  0  0  0
   -4.4071   -2.7057    0.6200 N   0  0  0  0  0  4  0  0  0  0  0  0
   -3.0428   -0.5451    1.7711 O   0  0  0  0  0  0  0  0  0  0  0  0
   -3.1782    0.8781    1.9032 C   0  0  0  0  0  0  0  0  0  0  0  0
   -3.7926    1.4348    0.6458 C   0  0  0  0  0  0  0  0  0  0  0  0
   -2.9901    1.8555   -0.4183 C   0  0  0  0  0  0  0  0  0  0  0  0
   -3.6101    2.3309   -1.5718 C   0  0  0  0  0  0  0  0  0  0  0  0
   -5.0059    2.3702   -1.6243 C   0  0  0  0  0  0  0  0  0  0  0  0
   -5.7774    1.9585   -0.6034 N   0  0  0  0  0  0  0  0  0  0  0  0
   -5.1859    1.5035    0.5141 C   0  0  0  0  0  0  0  0  0  0  0  0
   -5.8588   -3.0387    0.5084 C   0  0  1  0  0  0  0  0  0  0  0  0
   -6.2034   -4.1600    1.5141 C   0  0  0  0  0  0  0  0  0  0  0  0
   -5.4127   -5.1328    1.4681 O   0  0  0  0  0  1  0  0  0  0  0  0
   -7.0231   -3.9343    2.4401 O   0  0  0  0  0  0  0  0  0  0  0  0
   -6.7075   -1.7846    0.7439 C   0  0  0  0  0  0  0  0  0  0  0  0
   -6.4320   -1.3100    2.0619 O   0  0  0  0  0  0  0  0  0  0  0  0
   -2.8370    2.7628   -2.6929 C   0  0  0  0  0  0  0  0  0  0  0  0
   -2.2012    3.1083   -3.6051 N   0  0  0  0  0  0  0  0  0  0  0  0
    8.2960    4.1174   -3.3085 H   0  0  0  0  0  0  0  0  0  0  0  0
    6.6119    5.1658   -1.8110 H   0  0  0  0  0  0  0  0  0  0  0  0
    5.3843    3.7832   -0.1630 H   0  0  0  0  0  0  0  0  0  0  0  0
    7.5135    0.2923   -1.5099 H   0  0  0  0  0  0  0  0  0  0  0  0
    8.7488    1.6799   -3.1473 H   0  0  0  0  0  0  0  0  0  0  0  0
    7.4964    0.4193    1.1118 H   0  0  0  0  0  0  0  0  0  0  0  0
    6.4397   -0.9789    2.8465 H   0  0  0  0  0  0  0  0  0  0  0  0
    3.9855   -1.0775    3.0333 H   0  0  0  0  0  0  0  0  0  0  0  0
    3.0682    2.7475   -0.2818 H   0  0  0  0  0  0  0  0  0  0  0  0
    3.8658    1.8907   -1.6196 H   0  0  0  0  0  0  0  0  0  0  0  0
    2.4335    1.2009   -0.8823 H   0  0  0  0  0  0  0  0  0  0  0  0
    1.8891   -0.0826    2.5990 H   0  0  0  0  0  0  0  0  0  0  0  0
    1.6413    1.1087    1.3170 H   0  0  0  0  0  0  0  0  0  0  0  0
    2.3480   -1.3054    0.0351 H   0  0  0  0  0  0  0  0  0  0  0  0
   -0.4623   -0.1575    2.1090 H   0  0  0  0  0  0  0  0  0  0  0  0
   -1.6075   -2.8016   -1.9145 H   0  0  0  0  0  0  0  0  0  0  0  0
    1.6431   -1.6227   -2.0994 H   0  0  0  0  0  0  0  0  0  0  0  0
    0.6322   -3.0173   -2.5187 H   0  0  0  0  0  0  0  0  0  0  0  0
    1.7428   -3.1201   -1.1413 H   0  0  0  0  0  0  0  0  0  0  0  0
   -4.3354   -1.1207   -0.7787 H   0  0  0  0  0  0  0  0  0  0  0  0
   -3.8618   -2.7037   -1.4250 H   0  0  0  0  0  0  0  0  0  0  0  0
   -4.2791   -2.0819    1.4281 H   0  0  0  0  0  0  0  0  0  0  0  0
   -3.9072   -3.5811    0.8239 H   0  0  0  0  0  0  0  0  0  0  0  0
   -3.8258    1.0942    2.7600 H   0  0  0  0  0  0  0  0  0  0  0  0
   -2.2146    1.3581    2.1033 H   0  0  0  0  0  0  0  0  0  0  0  0
   -1.9048    1.8004   -0.3566 H   0  0  0  0  0  0  0  0  0  0  0  0
   -5.4913    2.7406   -2.5229 H   0  0  0  0  0  0  0  0  0  0  0  0
   -5.8136    1.1712    1.3358 H   0  0  0  0  0  0  0  0  0  0  0  0
   -6.0805   -3.4341   -0.4864 H   0  0  0  0  0  0  0  0  0  0  0  0
   -7.7723   -2.0229    0.6426 H   0  0  0  0  0  0  0  0  0  0  0  0
   -6.4674   -1.0161    0.0035 H   0  0  0  0  0  0  0  0  0  0  0  0
   -6.7332   -2.0235    2.6793 H   0  0  0  0  0  0  0  0  0  0  0  0
  1  2  2  0
  1  6  1  0
  2  3  1  0
  3  4  2  0
  4  5  1  0
  4  7  1  0
  5  6  2  0
  7  8  2  0
  7 12  1  0
  8  9  1  0
  9 10  2  0
 10 11  1  0
 11 12  2  0
 11 14  1  0
 12 13  1  0
 14 15  1  0
 15 16  1  0
 16 17  2  0
 16 21  1  0
 17 18  1  0
 18 19  2  0
 18 25  1  0
 19 20  1  0
 19 23  1  0
 20 21  2  0
 21 22  1  0
 23 24  1  0
 24 33  1  0
 25 26  1  0
 26 27  1  0
 27 28  2  0
 27 32  1  0
 28 29  1  0
 29 30  2  0
 29 39  1  0
 30 31  1  0
 31 32  2  0
 33 34  1  0
 33 37  1  0
 34 35  1  0
 34 36  2  0
 37 38  1  0
 39 40  3  0
  1 41  1  0
  2 42  1  0
  3 43  1  0
  5 44  1  0
  6 45  1  0
  8 46  1  0
  9 47  1  0
 10 48  1  0
 13 49  1  0
 13 50  1  0
 13 51  1  0
 14 52  1  0
 14 53  1  0
 15 54  1  0
 17 55  1  0
 20 56  1  0
 22 57  1  0
 22 58  1  0
 22 59  1  0
 23 60  1  0
 23 61  1  0
 24 62  1  0
 24 63  1  0
 26 64  1  0
 26 65  1  0
 28 66  1  0
 30 67  1  0
 32 68  1  0
 33 69  1  6
 37 70  1  0
 37 71  1  0
 38 72  1  0
M  CHG  2  24   1  35  -1
M  END
>  <%C>  (1) 
98.790520000000001

>  <mol_id>  (1) 
4

>  <isomer_id>  (1) 
1

>  <CID>  (1) 
10

>  <Energy>  (1) 
87.06028951720414

$$$$
