PD1-PDL1.sdf
     RDKit          3D

 72 75  0  0  0  0  0  0  0  0999 V2000
    7.7994    1.6859    1.0325 C   0  0  0  0  0  0  0  0  0  0  0  0
    6.9267    0.6082    1.2112 C   0  0  0  0  0  0  0  0  0  0  0  0
    5.6034    0.6980    0.7645 C   0  0  0  0  0  0  0  0  0  0  0  0
    5.1392    1.8625    0.1320 C   0  0  0  0  0  0  0  0  0  0  0  0
    6.0216    2.9416   -0.0312 C   0  0  0  0  0  0  0  0  0  0  0  0
    7.3459    2.8538    0.4121 C   0  0  0  0  0  0  0  0  0  0  0  0
    3.7430    1.9719   -0.3236 C   0  0  0  0  0  0  0  0  0  0  0  0
    2.9713    3.0085    0.2180 C   0  0  0  0  0  0  0  0  0  0  0  0
    1.6349    3.1655   -0.1343 C   0  0  0  0  0  0  0  0  0  0  0  0
    1.0520    2.2816   -1.0367 C   0  0  0  0  0  0  0  0  0  0  0  0
    1.7890    1.2293   -1.6016 C   0  0  0  0  0  0  0  0  0  0  0  0
    3.1597    1.0781   -1.2605 C   0  0  0  0  0  0  0  0  0  0  0  0
    3.9971   -0.0194   -1.8928 C   0  0  0  0  0  0  0  0  0  0  0  0
    1.0663    0.2944   -2.5528 C   0  0  0  0  0  0  0  0  0  0  0  0
    0.9831   -1.0638   -1.9809 N   0  0  0  0  0  0  0  0  0  0  0  0
    0.1260   -1.4637   -0.9500 C   0  0  0  0  0  0  0  0  0  0  0  0
   -0.8854   -0.6286   -0.4670 C   0  0  0  0  0  0  0  0  0  0  0  0
   -1.7281   -1.0188    0.5811 C   0  0  0  0  0  0  0  0  0  0  0  0
   -1.5495   -2.2826    1.1583 C   0  0  0  0  0  0  0  0  0  0  0  0
   -0.5462   -3.1326    0.6749 C   0  0  0  0  0  0  0  0  0  0  0  0
    0.2951   -2.7355   -0.3741 C   0  0  0  0  0  0  0  0  0  0  0  0
    1.3673   -3.6803   -0.8655 C   0  0  0  0  0  0  0  0  0  0  0  0
   -2.4369   -2.7301    2.2815 C   0  0  0  0  0  0  0  0  0  0  0  0
   -3.5505   -3.4976    1.7059 N   0  0  0  0  0  4  0  0  0  0  0  0
   -2.7026   -0.1946    1.0944 O   0  0  0  0  0  0  0  0  0  0  0  0
   -3.4779    0.5689    0.1520 C   0  0  0  0  0  0  0  0  0  0  0  0
   -2.9338    1.9684   -0.0040 C   0  0  0  0  0  0  0  0  0  0  0  0
   -3.0735    2.6429   -1.2195 C   0  0  0  0  0  0  0  0  0  0  0  0
   -2.5640    3.9367   -1.3245 C   0  0  0  0  0  0  0  0  0  0  0  0
   -1.9435    4.5142   -0.2144 C   0  0  0  0  0  0  0  0  0  0  0  0
   -1.8059    3.8677    0.9555 N   0  0  0  0  0  0  0  0  0  0  0  0
   -2.2927    2.6183    1.0613 C   0  0  0  0  0  0  0  0  0  0  0  0
   -4.7580   -2.6669    1.4197 C   0  0  1  0  0  0  0  0  0  0  0  0
   -4.9854   -2.4764   -0.0897 C   0  0  0  0  0  0  0  0  0  0  0  0
   -4.3728   -3.2882   -0.8313 O   0  0  0  0  0  1  0  0  0  0  0  0
   -5.7505   -1.5646   -0.4792 O   0  0  0  0  0  0  0  0  0  0  0  0
   -5.9964   -3.3502    2.0007 C   0  0  0  0  0  0  0  0  0  0  0  0
   -5.6492   -4.0134    3.2277 O   0  0  0  0  0  0  0  0  0  0  0  0
   -2.6640    4.6729   -2.5447 C   0  0  0  0  0  0  0  0  0  0  0  0
   -2.7366    5.2757   -3.5382 N   0  0  0  0  0  0  0  0  0  0  0  0
    8.8268    1.6179    1.3780 H   0  0  0  0  0  0  0  0  0  0  0  0
    7.2742   -0.2965    1.7010 H   0  0  0  0  0  0  0  0  0  0  0  0
    4.9254   -0.1358    0.9186 H   0  0  0  0  0  0  0  0  0  0  0  0
    5.6762    3.8507   -0.5147 H   0  0  0  0  0  0  0  0  0  0  0  0
    8.0202    3.6938    0.2738 H   0  0  0  0  0  0  0  0  0  0  0  0
    3.4126    3.6894    0.9395 H   0  0  0  0  0  0  0  0  0  0  0  0
    1.0463    3.9644    0.3070 H   0  0  0  0  0  0  0  0  0  0  0  0
    0.0059    2.4139   -1.2915 H   0  0  0  0  0  0  0  0  0  0  0  0
    3.9365   -0.9277   -1.2870 H   0  0  0  0  0  0  0  0  0  0  0  0
    3.6607   -0.2505   -2.9055 H   0  0  0  0  0  0  0  0  0  0  0  0
    5.0460    0.2799   -1.9723 H   0  0  0  0  0  0  0  0  0  0  0  0
    0.0634    0.6686   -2.7834 H   0  0  0  0  0  0  0  0  0  0  0  0
    1.5961    0.2628   -3.5099 H   0  0  0  0  0  0  0  0  0  0  0  0
    1.7677   -1.6819   -2.1660 H   0  0  0  0  0  0  0  0  0  0  0  0
   -1.0146    0.3510   -0.8978 H   0  0  0  0  0  0  0  0  0  0  0  0
   -0.4145   -4.1137    1.1203 H   0  0  0  0  0  0  0  0  0  0  0  0
    2.3566   -3.2330   -0.7289 H   0  0  0  0  0  0  0  0  0  0  0  0
    1.3416   -4.6274   -0.3184 H   0  0  0  0  0  0  0  0  0  0  0  0
    1.2198   -3.8974   -1.9281 H   0  0  0  0  0  0  0  0  0  0  0  0
   -1.8601   -3.3409    2.9850 H   0  0  0  0  0  0  0  0  0  0  0  0
   -2.8110   -1.8567    2.8299 H   0  0  0  0  0  0  0  0  0  0  0  0
   -3.2567   -3.8982    0.8019 H   0  0  0  0  0  0  0  0  0  0  0  0
   -3.8357   -4.2448    2.3428 H   0  0  0  0  0  0  0  0  0  0  0  0
   -4.5090    0.6313    0.5154 H   0  0  0  0  0  0  0  0  0  0  0  0
   -3.5176    0.0623   -0.8203 H   0  0  0  0  0  0  0  0  0  0  0  0
   -3.5697    2.1699   -2.0657 H   0  0  0  0  0  0  0  0  0  0  0  0
   -1.5473    5.5227   -0.2954 H   0  0  0  0  0  0  0  0  0  0  0  0
   -2.1823    2.1040    2.0116 H   0  0  0  0  0  0  0  0  0  0  0  0
   -4.6498   -1.6734    1.8630 H   0  0  0  0  0  0  0  0  0  0  0  0
   -6.3901   -4.0908    1.2950 H   0  0  0  0  0  0  0  0  0  0  0  0
   -6.7780   -2.6029    2.1750 H   0  0  0  0  0  0  0  0  0  0  0  0
   -6.4569   -4.3485    3.6597 H   0  0  0  0  0  0  0  0  0  0  0  0
  1  2  2  0
  1  6  1  0
  2  3  1  0
  3  4  2  0
  4  5  1  0
  4  7  1  0
  5  6  2  0
  7  8  2  0
  7 12  1  0
  8  9  1  0
  9 10  2  0
 10 11  1  0
 11 12  2  0
 11 14  1  0
 12 13  1  0
 14 15  1  0
 15 16  1  0
 16 17  2  0
 16 21  1  0
 17 18  1  0
 18 19  2  0
 18 25  1  0
 19 20  1  0
 19 23  1  0
 20 21  2  0
 21 22  1  0
 23 24  1  0
 24 33  1  0
 25 26  1  0
 26 27  1  0
 27 28  2  0
 27 32  1  0
 28 29  1  0
 29 30  2  0
 29 39  1  0
 30 31  1  0
 31 32  2  0
 33 34  1  0
 33 37  1  0
 34 35  1  0
 34 36  2  0
 37 38  1  0
 39 40  3  0
  1 41  1  0
  2 42  1  0
  3 43  1  0
  5 44  1  0
  6 45  1  0
  8 46  1  0
  9 47  1  0
 10 48  1  0
 13 49  1  0
 13 50  1  0
 13 51  1  0
 14 52  1  0
 14 53  1  0
 15 54  1  0
 17 55  1  0
 20 56  1  0
 22 57  1  0
 22 58  1  0
 22 59  1  0
 23 60  1  0
 23 61  1  0
 24 62  1  0
 24 63  1  0
 26 64  1  0
 26 65  1  0
 28 66  1  0
 30 67  1  0
 32 68  1  0
 33 69  1  1
 37 70  1  0
 37 71  1  0
 38 72  1  0
M  CHG  2  24   1  35  -1
M  END
>  <%C>  (1) 
98.790520000000001

>  <mol_id>  (1) 
4

>  <isomer_id>  (1) 
1

>  <CID>  (1) 
10

>  <Energy>  (1) 
87.06028951720414

$$$$
