PD1-PDL1.sdf
     RDKit          3D

 72 75  0  0  0  0  0  0  0  0999 V2000
    8.3032    1.9702    1.2603 C   0  0  0  0  0  0  0  0  0  0  0  0
    8.0318    2.8280    0.1901 C   0  0  0  0  0  0  0  0  0  0  0  0
    6.9099    2.6076   -0.6173 C   0  0  0  0  0  0  0  0  0  0  0  0
    6.0442    1.5328   -0.3608 C   0  0  0  0  0  0  0  0  0  0  0  0
    6.3330    0.6731    0.7109 C   0  0  0  0  0  0  0  0  0  0  0  0
    7.4536    0.8909    1.5197 C   0  0  0  0  0  0  0  0  0  0  0  0
    4.8732    1.2963   -1.2226 C   0  0  0  0  0  0  0  0  0  0  0  0
    5.1064    1.1152   -2.5928 C   0  0  0  0  0  0  0  0  0  0  0  0
    4.0591    0.8375   -3.4667 C   0  0  0  0  0  0  0  0  0  0  0  0
    2.7592    0.7380   -2.9786 C   0  0  0  0  0  0  0  0  0  0  0  0
    2.4829    0.9334   -1.6167 C   0  0  0  0  0  0  0  0  0  0  0  0
    3.5458    1.2322   -0.7228 C   0  0  0  0  0  0  0  0  0  0  0  0
    3.2695    1.4893    0.7496 C   0  0  0  0  0  0  0  0  0  0  0  0
    1.0456    0.8056   -1.1630 C   0  0  0  0  0  0  0  0  0  0  0  0
    0.9386   -0.3817   -0.3032 N   0  0  0  0  0  0  0  0  0  0  0  0
   -0.2498   -0.8598    0.2503 C   0  0  0  0  0  0  0  0  0  0  0  0
   -1.4197   -0.0972    0.2185 C   0  0  0  0  0  0  0  0  0  0  0  0
   -2.6228   -0.5744    0.7550 C   0  0  0  0  0  0  0  0  0  0  0  0
   -2.6355   -1.8296    1.3831 C   0  0  0  0  0  0  0  0  0  0  0  0
   -1.4629   -2.5949    1.4222 C   0  0  0  0  0  0  0  0  0  0  0  0
   -0.2698   -2.1262    0.8569 C   0  0  0  0  0  0  0  0  0  0  0  0
    0.9706   -2.9877    0.9101 C   0  0  0  0  0  0  0  0  0  0  0  0
   -3.8835   -2.3676    2.0232 C   0  0  0  0  0  0  0  0  0  0  0  0
   -4.9577   -2.4786    1.0205 N   0  0  0  0  0  4  0  0  0  0  0  0
   -3.7897    0.1533    0.6928 O   0  0  0  0  0  0  0  0  0  0  0  0
   -4.0832    0.7640   -0.5805 C   0  0  0  0  0  0  0  0  0  0  0  0
   -3.7229    2.2284   -0.5703 C   0  0  0  0  0  0  0  0  0  0  0  0
   -3.9695    3.0333    0.5456 C   0  0  0  0  0  0  0  0  0  0  0  0
   -3.6037    4.3776    0.4900 C   0  0  0  0  0  0  0  0  0  0  0  0
   -3.0071    4.8703   -0.6737 C   0  0  0  0  0  0  0  0  0  0  0  0
   -2.7726    4.0985   -1.7495 N   0  0  0  0  0  0  0  0  0  0  0  0
   -3.1278    2.8043   -1.7004 C   0  0  0  0  0  0  0  0  0  0  0  0
   -4.9009   -3.6398    0.0627 C   0  0  1  0  0  0  0  0  0  0  0  0
   -4.1600   -3.2762   -1.2422 C   0  0  0  0  0  0  0  0  0  0  0  0
   -4.4422   -2.1316   -1.6826 O   0  0  0  0  0  1  0  0  0  0  0  0
   -3.3551   -4.0789   -1.7697 O   0  0  0  0  0  0  0  0  0  0  0  0
   -4.3756   -4.9467    0.6679 C   0  0  0  0  0  0  0  0  0  0  0  0
   -5.0812   -5.2170    1.8868 O   0  0  0  0  0  0  0  0  0  0  0  0
   -3.8273    5.2473    1.6011 C   0  0  0  0  0  0  0  0  0  0  0  0
   -4.0118    5.9559    2.5068 N   0  0  0  0  0  0  0  0  0  0  0  0
    9.1732    2.1410    1.8880 H   0  0  0  0  0  0  0  0  0  0  0  0
    8.6903    3.6669   -0.0145 H   0  0  0  0  0  0  0  0  0  0  0  0
    6.7022    3.2815   -1.4432 H   0  0  0  0  0  0  0  0  0  0  0  0
    5.6847   -0.1745    0.9096 H   0  0  0  0  0  0  0  0  0  0  0  0
    7.6644    0.2191    2.3462 H   0  0  0  0  0  0  0  0  0  0  0  0
    6.1201    1.1693   -2.9790 H   0  0  0  0  0  0  0  0  0  0  0  0
    4.2567    0.6871   -4.5241 H   0  0  0  0  0  0  0  0  0  0  0  0
    1.9567    0.5065   -3.6734 H   0  0  0  0  0  0  0  0  0  0  0  0
    3.9928    2.1936    1.1700 H   0  0  0  0  0  0  0  0  0  0  0  0
    2.2813    1.9257    0.9068 H   0  0  0  0  0  0  0  0  0  0  0  0
    3.3248    0.5513    1.3091 H   0  0  0  0  0  0  0  0  0  0  0  0
    0.3816    0.6955   -2.0274 H   0  0  0  0  0  0  0  0  0  0  0  0
    0.7397    1.7108   -0.6292 H   0  0  0  0  0  0  0  0  0  0  0  0
    1.7094   -1.0437   -0.3648 H   0  0  0  0  0  0  0  0  0  0  0  0
   -1.3989    0.8864   -0.2267 H   0  0  0  0  0  0  0  0  0  0  0  0
   -1.4768   -3.5720    1.8943 H   0  0  0  0  0  0  0  0  0  0  0  0
    1.3045   -3.2287   -0.1041 H   0  0  0  0  0  0  0  0  0  0  0  0
    0.7784   -3.9266    1.4379 H   0  0  0  0  0  0  0  0  0  0  0  0
    1.7751   -2.4603    1.4322 H   0  0  0  0  0  0  0  0  0  0  0  0
   -3.6827   -3.3411    2.4843 H   0  0  0  0  0  0  0  0  0  0  0  0
   -4.1833   -1.6812    2.8235 H   0  0  0  0  0  0  0  0  0  0  0  0
   -5.8544   -2.4986    1.5003 H   0  0  0  0  0  0  0  0  0  0  0  0
   -4.9063   -1.6267    0.4408 H   0  0  0  0  0  0  0  0  0  0  0  0
   -5.1538    0.6614   -0.7843 H   0  0  0  0  0  0  0  0  0  0  0  0
   -3.5593    0.2501   -1.3962 H   0  0  0  0  0  0  0  0  0  0  0  0
   -4.4286    2.6190    1.4410 H   0  0  0  0  0  0  0  0  0  0  0  0
   -2.7203    5.9173   -0.7167 H   0  0  0  0  0  0  0  0  0  0  0  0
   -2.9382    2.1830   -2.5711 H   0  0  0  0  0  0  0  0  0  0  0  0
   -5.9240   -3.8484   -0.2602 H   0  0  0  0  0  0  0  0  0  0  0  0
   -3.3000   -4.8786    0.8600 H   0  0  0  0  0  0  0  0  0  0  0  0
   -4.5354   -5.7670   -0.0404 H   0  0  0  0  0  0  0  0  0  0  0  0
   -4.8678   -6.1137    2.2012 H   0  0  0  0  0  0  0  0  0  0  0  0
  1  2  2  0
  1  6  1  0
  2  3  1  0
  3  4  2  0
  4  5  1  0
  4  7  1  0
  5  6  2  0
  7  8  2  0
  7 12  1  0
  8  9  1  0
  9 10  2  0
 10 11  1  0
 11 12  2  0
 11 14  1  0
 12 13  1  0
 14 15  1  0
 15 16  1  0
 16 17  2  0
 16 21  1  0
 17 18  1  0
 18 19  2  0
 18 25  1  0
 19 20  1  0
 19 23  1  0
 20 21  2  0
 21 22  1  0
 23 24  1  0
 24 33  1  0
 25 26  1  0
 26 27  1  0
 27 28  2  0
 27 32  1  0
 28 29  1  0
 29 30  2  0
 29 39  1  0
 30 31  1  0
 31 32  2  0
 33 34  1  0
 33 37  1  0
 34 35  1  0
 34 36  2  0
 37 38  1  0
 39 40  3  0
  1 41  1  0
  2 42  1  0
  3 43  1  0
  5 44  1  0
  6 45  1  0
  8 46  1  0
  9 47  1  0
 10 48  1  0
 13 49  1  0
 13 50  1  0
 13 51  1  0
 14 52  1  0
 14 53  1  0
 15 54  1  0
 17 55  1  0
 20 56  1  0
 22 57  1  0
 22 58  1  0
 22 59  1  0
 23 60  1  0
 23 61  1  0
 24 62  1  0
 24 63  1  0
 26 64  1  0
 26 65  1  0
 28 66  1  0
 30 67  1  0
 32 68  1  0
 33 69  1  6
 37 70  1  0
 37 71  1  0
 38 72  1  0
M  CHG  2  24   1  35  -1
M  END
>  <%C>  (1) 
98.790520000000001

>  <mol_id>  (1) 
4

>  <isomer_id>  (1) 
1

>  <CID>  (1) 
10

>  <Energy>  (1) 
87.06028951720414

$$$$
