PD1-PDL1.sdf
     RDKit          3D

 72 75  0  0  0  0  0  0  0  0999 V2000
    8.9769    1.4904    1.5135 C   0  0  0  0  0  0  0  0  0  0  0  0
    8.8271    2.4606    0.5181 C   0  0  0  0  0  0  0  0  0  0  0  0
    7.7583    2.3806   -0.3818 C   0  0  0  0  0  0  0  0  0  0  0  0
    6.8253    1.3351   -0.2937 C   0  0  0  0  0  0  0  0  0  0  0  0
    6.9938    0.3606    0.7029 C   0  0  0  0  0  0  0  0  0  0  0  0
    8.0605    0.4387    1.6047 C   0  0  0  0  0  0  0  0  0  0  0  0
    5.7107    1.2486   -1.2529 C   0  0  0  0  0  0  0  0  0  0  0  0
    6.0413    1.1806   -2.6131 C   0  0  0  0  0  0  0  0  0  0  0  0
    5.0539    1.0515   -3.5854 C   0  0  0  0  0  0  0  0  0  0  0  0
    3.7159    0.9885   -3.2073 C   0  0  0  0  0  0  0  0  0  0  0  0
    3.3433    1.0706   -1.8571 C   0  0  0  0  0  0  0  0  0  0  0  0
    4.3457    1.2140   -0.8605 C   0  0  0  0  0  0  0  0  0  0  0  0
    3.9587    1.3309    0.6049 C   0  0  0  0  0  0  0  0  0  0  0  0
    1.8714    0.9668   -1.5273 C   0  0  0  0  0  0  0  0  0  0  0  0
    1.6496   -0.3677   -0.9555 N   0  0  0  0  0  0  0  0  0  0  0  0
    0.4989   -0.7896   -0.2910 C   0  0  0  0  0  0  0  0  0  0  0  0
   -0.6578   -0.0035   -0.2779 C   0  0  0  0  0  0  0  0  0  0  0  0
   -1.8185   -0.4324    0.3777 C   0  0  0  0  0  0  0  0  0  0  0  0
   -1.8121   -1.6718    1.0347 C   0  0  0  0  0  0  0  0  0  0  0  0
   -0.6563   -2.4614    1.0281 C   0  0  0  0  0  0  0  0  0  0  0  0
    0.5030   -2.0310    0.3692 C   0  0  0  0  0  0  0  0  0  0  0  0
    1.7344   -2.9073    0.3810 C   0  0  0  0  0  0  0  0  0  0  0  0
   -3.0623   -2.1646    1.6996 C   0  0  0  0  0  0  0  0  0  0  0  0
   -3.9559   -2.4898    0.5867 N   0  0  0  0  0  4  0  0  0  0  0  0
   -2.9722    0.3110    0.4373 O   0  0  0  0  0  0  0  0  0  0  0  0
   -3.3927    1.0117   -0.7446 C   0  0  0  0  0  0  0  0  0  0  0  0
   -4.6489    1.7740   -0.4150 C   0  0  0  0  0  0  0  0  0  0  0  0
   -4.6848    2.6368    0.6844 C   0  0  0  0  0  0  0  0  0  0  0  0
   -5.8604    3.3377    0.9465 C   0  0  0  0  0  0  0  0  0  0  0  0
   -6.9560    3.1633    0.0975 C   0  0  0  0  0  0  0  0  0  0  0  0
   -6.9223    2.3430   -0.9647 N   0  0  0  0  0  0  0  0  0  0  0  0
   -5.8000    1.6444   -1.2093 C   0  0  0  0  0  0  0  0  0  0  0  0
   -5.4002   -2.6647    0.9294 C   0  0  1  0  0  0  0  0  0  0  0  0
   -6.2880   -2.1230   -0.2157 C   0  0  0  0  0  0  0  0  0  0  0  0
   -7.5174   -2.3754   -0.2110 O   0  0  0  0  0  1  0  0  0  0  0  0
   -5.6717   -1.4890   -1.1142 O   0  0  0  0  0  0  0  0  0  0  0  0
   -5.7378   -4.1304    1.2129 C   0  0  0  0  0  0  0  0  0  0  0  0
   -7.0864   -4.2059    1.6616 O   0  0  0  0  0  0  0  0  0  0  0  0
   -5.9532    4.2263    2.0614 C   0  0  0  0  0  0  0  0  0  0  0  0
   -6.0229    4.9530    2.9689 N   0  0  0  0  0  0  0  0  0  0  0  0
    9.8048    1.5533    2.2136 H   0  0  0  0  0  0  0  0  0  0  0  0
    9.5389    3.2775    0.4439 H   0  0  0  0  0  0  0  0  0  0  0  0
    7.6455    3.1418   -1.1482 H   0  0  0  0  0  0  0  0  0  0  0  0
    6.2932   -0.4656    0.7705 H   0  0  0  0  0  0  0  0  0  0  0  0
    8.1780   -0.3192    2.3734 H   0  0  0  0  0  0  0  0  0  0  0  0
    7.0842    1.2056   -2.9154 H   0  0  0  0  0  0  0  0  0  0  0  0
    5.3288    0.9881   -4.6342 H   0  0  0  0  0  0  0  0  0  0  0  0
    2.9601    0.8697   -3.9786 H   0  0  0  0  0  0  0  0  0  0  0  0
    3.8020    0.3360    1.0309 H   0  0  0  0  0  0  0  0  0  0  0  0
    4.7307    1.8422    1.1858 H   0  0  0  0  0  0  0  0  0  0  0  0
    3.0436    1.9123    0.7319 H   0  0  0  0  0  0  0  0  0  0  0  0
    1.2658    1.0898   -2.4318 H   0  0  0  0  0  0  0  0  0  0  0  0
    1.5768    1.7568   -0.8303 H   0  0  0  0  0  0  0  0  0  0  0  0
    2.4674   -0.9726   -0.9040 H   0  0  0  0  0  0  0  0  0  0  0  0
   -0.6473    0.9573   -0.7723 H   0  0  0  0  0  0  0  0  0  0  0  0
   -0.6568   -3.4221    1.5351 H   0  0  0  0  0  0  0  0  0  0  0  0
    2.5711   -2.3776    0.8471 H   0  0  0  0  0  0  0  0  0  0  0  0
    2.0141   -3.1796   -0.6414 H   0  0  0  0  0  0  0  0  0  0  0  0
    1.5594   -3.8290    0.9439 H   0  0  0  0  0  0  0  0  0  0  0  0
   -2.8641   -3.0372    2.3326 H   0  0  0  0  0  0  0  0  0  0  0  0
   -3.4887   -1.3736    2.3296 H   0  0  0  0  0  0  0  0  0  0  0  0
   -3.9249   -1.6992   -0.0791 H   0  0  0  0  0  0  0  0  0  0  0  0
   -3.6129   -3.3103    0.0911 H   0  0  0  0  0  0  0  0  0  0  0  0
   -2.6334    1.7237   -1.0805 H   0  0  0  0  0  0  0  0  0  0  0  0
   -3.5749    0.3004   -1.5585 H   0  0  0  0  0  0  0  0  0  0  0  0
   -3.8146    2.7529    1.3271 H   0  0  0  0  0  0  0  0  0  0  0  0
   -7.8719    3.7126    0.2957 H   0  0  0  0  0  0  0  0  0  0  0  0
   -5.7858    0.9748   -2.0644 H   0  0  0  0  0  0  0  0  0  0  0  0
   -5.6472   -2.0796    1.8201 H   0  0  0  0  0  0  0  0  0  0  0  0
   -5.6119   -4.7302    0.3049 H   0  0  0  0  0  0  0  0  0  0  0  0
   -5.0730   -4.5322    1.9841 H   0  0  0  0  0  0  0  0  0  0  0  0
   -7.6479   -3.6786    1.0340 H   0  0  0  0  0  0  0  0  0  0  0  0
  1  2  2  0
  1  6  1  0
  2  3  1  0
  3  4  2  0
  4  5  1  0
  4  7  1  0
  5  6  2  0
  7  8  2  0
  7 12  1  0
  8  9  1  0
  9 10  2  0
 10 11  1  0
 11 12  2  0
 11 14  1  0
 12 13  1  0
 14 15  1  0
 15 16  1  0
 16 17  2  0
 16 21  1  0
 17 18  1  0
 18 19  2  0
 18 25  1  0
 19 20  1  0
 19 23  1  0
 20 21  2  0
 21 22  1  0
 23 24  1  0
 24 33  1  0
 25 26  1  0
 26 27  1  0
 27 28  2  0
 27 32  1  0
 28 29  1  0
 29 30  2  0
 29 39  1  0
 30 31  1  0
 31 32  2  0
 33 34  1  0
 33 37  1  0
 34 35  1  0
 34 36  2  0
 37 38  1  0
 39 40  3  0
  1 41  1  0
  2 42  1  0
  3 43  1  0
  5 44  1  0
  6 45  1  0
  8 46  1  0
  9 47  1  0
 10 48  1  0
 13 49  1  0
 13 50  1  0
 13 51  1  0
 14 52  1  0
 14 53  1  0
 15 54  1  0
 17 55  1  0
 20 56  1  0
 22 57  1  0
 22 58  1  0
 22 59  1  0
 23 60  1  0
 23 61  1  0
 24 62  1  0
 24 63  1  0
 26 64  1  0
 26 65  1  0
 28 66  1  0
 30 67  1  0
 32 68  1  0
 33 69  1  1
 37 70  1  0
 37 71  1  0
 38 72  1  0
M  CHG  2  24   1  35  -1
M  END
>  <%C>  (1) 
98.790520000000001

>  <mol_id>  (1) 
4

>  <isomer_id>  (1) 
1

>  <CID>  (1) 
10

>  <Energy>  (1) 
87.06028951720414

$$$$
