PD1-PDL1.sdf
     RDKit          3D

 72 75  0  0  0  0  0  0  0  0999 V2000
    9.4691    2.5871   -0.5104 C   0  0  0  0  0  0  0  0  0  0  0  0
    9.4081    1.5007    0.3678 C   0  0  0  0  0  0  0  0  0  0  0  0
    8.1715    0.9309    0.6922 C   0  0  0  0  0  0  0  0  0  0  0  0
    6.9844    1.4365    0.1386 C   0  0  0  0  0  0  0  0  0  0  0  0
    7.0583    2.5357   -0.7321 C   0  0  0  0  0  0  0  0  0  0  0  0
    8.2930    3.1050   -1.0607 C   0  0  0  0  0  0  0  0  0  0  0  0
    5.6826    0.8442    0.4911 C   0  0  0  0  0  0  0  0  0  0  0  0
    5.3370    0.8246    1.8495 C   0  0  0  0  0  0  0  0  0  0  0  0
    4.1090    0.3229    2.2709 C   0  0  0  0  0  0  0  0  0  0  0  0
    3.2022   -0.1578    1.3313 C   0  0  0  0  0  0  0  0  0  0  0  0
    3.5118   -0.1600   -0.0378 C   0  0  0  0  0  0  0  0  0  0  0  0
    4.7761    0.3213   -0.4708 C   0  0  0  0  0  0  0  0  0  0  0  0
    5.1515    0.2420   -1.9410 C   0  0  0  0  0  0  0  0  0  0  0  0
    2.4468   -0.6755   -0.9826 C   0  0  0  0  0  0  0  0  0  0  0  0
    1.3350    0.2879   -0.9559 N   0  0  0  0  0  0  0  0  0  0  0  0
    0.0254   -0.1758   -0.8757 C   0  0  0  0  0  0  0  0  0  0  0  0
   -0.7237    0.2300    0.2269 C   0  0  0  0  0  0  0  0  0  0  0  0
   -2.0367   -0.2102    0.4096 C   0  0  0  0  0  0  0  0  0  0  0  0
   -2.6067   -1.0864   -0.5263 C   0  0  0  0  0  0  0  0  0  0  0  0
   -1.8662   -1.4760   -1.6491 C   0  0  0  0  0  0  0  0  0  0  0  0
   -0.5546   -1.0210   -1.8433 C   0  0  0  0  0  0  0  0  0  0  0  0
    0.1852   -1.4416   -3.0923 C   0  0  0  0  0  0  0  0  0  0  0  0
   -4.0023   -1.6022   -0.3410 C   0  0  0  0  0  0  0  0  0  0  0  0
   -3.9825   -2.3892    0.8915 N   0  0  0  0  0  4  0  0  0  0  0  0
   -2.7587    0.1658    1.5146 O   0  0  0  0  0  0  0  0  0  0  0  0
   -3.0825    1.5644    1.5797 C   0  0  0  0  0  0  0  0  0  0  0  0
   -4.3097    1.8154    0.7437 C   0  0  0  0  0  0  0  0  0  0  0  0
   -4.2035    2.0563   -0.6295 C   0  0  0  0  0  0  0  0  0  0  0  0
   -5.3729    2.2434   -1.3645 C   0  0  0  0  0  0  0  0  0  0  0  0
   -6.6046    2.1934   -0.7062 C   0  0  0  0  0  0  0  0  0  0  0  0
   -6.7042    1.9627    0.6141 N   0  0  0  0  0  0  0  0  0  0  0  0
   -5.5830    1.7779    1.3271 C   0  0  0  0  0  0  0  0  0  0  0  0
   -5.3075   -2.9444    1.3063 C   0  0  1  0  0  0  0  0  0  0  0  0
   -5.1366   -4.3705    1.8778 C   0  0  0  0  0  0  0  0  0  0  0  0
   -4.0206   -4.9003    1.6359 O   0  0  0  0  0  1  0  0  0  0  0  0
   -6.0565   -4.8800    2.5646 O   0  0  0  0  0  0  0  0  0  0  0  0
   -5.9979   -2.0290    2.3201 C   0  0  0  0  0  0  0  0  0  0  0  0
   -7.2961   -2.5449    2.5903 O   0  0  0  0  0  0  0  0  0  0  0  0
   -5.3237    2.4745   -2.7733 C   0  0  0  0  0  0  0  0  0  0  0  0
   -5.2779    2.6533   -3.9229 N   0  0  0  0  0  0  0  0  0  0  0  0
   10.4282    3.0293   -0.7639 H   0  0  0  0  0  0  0  0  0  0  0  0
   10.3208    1.0968    0.7961 H   0  0  0  0  0  0  0  0  0  0  0  0
    8.1340    0.0827    1.3693 H   0  0  0  0  0  0  0  0  0  0  0  0
    6.1470    2.9482   -1.1542 H   0  0  0  0  0  0  0  0  0  0  0  0
    8.3362    3.9497   -1.7419 H   0  0  0  0  0  0  0  0  0  0  0  0
    6.0297    1.2215    2.5860 H   0  0  0  0  0  0  0  0  0  0  0  0
    3.8566    0.3173    3.3273 H   0  0  0  0  0  0  0  0  0  0  0  0
    2.2415   -0.5364    1.6703 H   0  0  0  0  0  0  0  0  0  0  0  0
    6.2123    0.4345   -2.1134 H   0  0  0  0  0  0  0  0  0  0  0  0
    4.9562   -0.7609   -2.3302 H   0  0  0  0  0  0  0  0  0  0  0  0
    4.5703    0.9687   -2.5163 H   0  0  0  0  0  0  0  0  0  0  0  0
    2.8104   -0.7879   -2.0057 H   0  0  0  0  0  0  0  0  0  0  0  0
    2.1196   -1.6650   -0.6424 H   0  0  0  0  0  0  0  0  0  0  0  0
    1.5335    1.0990   -0.3718 H   0  0  0  0  0  0  0  0  0  0  0  0
   -0.2701    0.8720    0.9728 H   0  0  0  0  0  0  0  0  0  0  0  0
   -2.3120   -2.1410   -2.3842 H   0  0  0  0  0  0  0  0  0  0  0  0
    0.8445   -2.2871   -2.8745 H   0  0  0  0  0  0  0  0  0  0  0  0
   -0.5140   -1.7424   -3.8786 H   0  0  0  0  0  0  0  0  0  0  0  0
    0.7869   -0.6131   -3.4789 H   0  0  0  0  0  0  0  0  0  0  0  0
   -4.7050   -0.7638   -0.2588 H   0  0  0  0  0  0  0  0  0  0  0  0
   -4.3065   -2.2172   -1.1964 H   0  0  0  0  0  0  0  0  0  0  0  0
   -3.3530   -3.2007    0.7769 H   0  0  0  0  0  0  0  0  0  0  0  0
   -3.5945   -1.8062    1.6382 H   0  0  0  0  0  0  0  0  0  0  0  0
   -2.2549    2.1937    1.2340 H   0  0  0  0  0  0  0  0  0  0  0  0
   -3.2757    1.8382    2.6225 H   0  0  0  0  0  0  0  0  0  0  0  0
   -3.2319    2.0818   -1.1208 H   0  0  0  0  0  0  0  0  0  0  0  0
   -7.5175    2.3395   -1.2768 H   0  0  0  0  0  0  0  0  0  0  0  0
   -5.6734    1.5837    2.3921 H   0  0  0  0  0  0  0  0  0  0  0  0
   -5.9590   -3.0384    0.4332 H   0  0  0  0  0  0  0  0  0  0  0  0
   -5.4142   -1.9807    3.2455 H   0  0  0  0  0  0  0  0  0  0  0  0
   -6.0849   -1.0156    1.9181 H   0  0  0  0  0  0  0  0  0  0  0  0
   -7.1999   -3.5118    2.7979 H   0  0  0  0  0  0  0  0  0  0  0  0
  1  2  2  0
  1  6  1  0
  2  3  1  0
  3  4  2  0
  4  5  1  0
  4  7  1  0
  5  6  2  0
  7  8  2  0
  7 12  1  0
  8  9  1  0
  9 10  2  0
 10 11  1  0
 11 12  2  0
 11 14  1  0
 12 13  1  0
 14 15  1  0
 15 16  1  0
 16 17  2  0
 16 21  1  0
 17 18  1  0
 18 19  2  0
 18 25  1  0
 19 20  1  0
 19 23  1  0
 20 21  2  0
 21 22  1  0
 23 24  1  0
 24 33  1  0
 25 26  1  0
 26 27  1  0
 27 28  2  0
 27 32  1  0
 28 29  1  0
 29 30  2  0
 29 39  1  0
 30 31  1  0
 31 32  2  0
 33 34  1  0
 33 37  1  0
 34 35  1  0
 34 36  2  0
 37 38  1  0
 39 40  3  0
  1 41  1  0
  2 42  1  0
  3 43  1  0
  5 44  1  0
  6 45  1  0
  8 46  1  0
  9 47  1  0
 10 48  1  0
 13 49  1  0
 13 50  1  0
 13 51  1  0
 14 52  1  0
 14 53  1  0
 15 54  1  0
 17 55  1  0
 20 56  1  0
 22 57  1  0
 22 58  1  0
 22 59  1  0
 23 60  1  0
 23 61  1  0
 24 62  1  0
 24 63  1  0
 26 64  1  0
 26 65  1  0
 28 66  1  0
 30 67  1  0
 32 68  1  0
 33 69  1  6
 37 70  1  0
 37 71  1  0
 38 72  1  0
M  CHG  2  24   1  35  -1
M  END
>  <%C>  (1) 
98.790520000000001

>  <mol_id>  (1) 
4

>  <isomer_id>  (1) 
1

>  <CID>  (1) 
10

>  <Energy>  (1) 
87.06028951720414

$$$$
