PD1-PDL1.sdf
     RDKit          3D

 72 75  0  0  0  0  0  0  0  0999 V2000
    8.7394   -0.1018   -1.5100 C   0  0  0  0  0  0  0  0  0  0  0  0
    7.7894   -0.7708   -0.7328 C   0  0  0  0  0  0  0  0  0  0  0  0
    6.5989   -0.1275   -0.3760 C   0  0  0  0  0  0  0  0  0  0  0  0
    6.3403    1.1875   -0.7964 C   0  0  0  0  0  0  0  0  0  0  0  0
    7.3078    1.8516   -1.5671 C   0  0  0  0  0  0  0  0  0  0  0  0
    8.4989    1.2108   -1.9261 C   0  0  0  0  0  0  0  0  0  0  0  0
    5.0938    1.8767   -0.4158 C   0  0  0  0  0  0  0  0  0  0  0  0
    5.2148    3.0888    0.2777 C   0  0  0  0  0  0  0  0  0  0  0  0
    4.0891    3.7858    0.7071 C   0  0  0  0  0  0  0  0  0  0  0  0
    2.8203    3.2755    0.4493 C   0  0  0  0  0  0  0  0  0  0  0  0
    2.6567    2.0741   -0.2570 C   0  0  0  0  0  0  0  0  0  0  0  0
    3.8020    1.3659   -0.7113 C   0  0  0  0  0  0  0  0  0  0  0  0
    3.6491    0.0806   -1.5094 C   0  0  0  0  0  0  0  0  0  0  0  0
    1.2470    1.5801   -0.4900 C   0  0  0  0  0  0  0  0  0  0  0  0
    1.0487    0.3853    0.3427 N   0  0  0  0  0  0  0  0  0  0  0  0
   -0.1846   -0.2297    0.5520 C   0  0  0  0  0  0  0  0  0  0  0  0
   -1.2252   -0.0772   -0.3686 C   0  0  0  0  0  0  0  0  0  0  0  0
   -2.4771   -0.6841   -0.1716 C   0  0  0  0  0  0  0  0  0  0  0  0
   -2.6565   -1.4773    0.9694 C   0  0  0  0  0  0  0  0  0  0  0  0
   -1.6138   -1.6501    1.8869 C   0  0  0  0  0  0  0  0  0  0  0  0
   -0.3758   -1.0281    1.6913 C   0  0  0  0  0  0  0  0  0  0  0  0
    0.7234   -1.2260    2.7088 C   0  0  0  0  0  0  0  0  0  0  0  0
   -3.9513   -2.1823    1.2160 C   0  0  0  0  0  0  0  0  0  0  0  0
   -3.8374   -3.4569    0.4989 N   0  0  0  0  0  4  0  0  0  0  0  0
   -3.5506   -0.5726   -1.0321 O   0  0  0  0  0  0  0  0  0  0  0  0
   -3.4835    0.3266   -2.1532 C   0  0  0  0  0  0  0  0  0  0  0  0
   -3.4687    1.7708   -1.7078 C   0  0  0  0  0  0  0  0  0  0  0  0
   -4.3105    2.2218   -0.6865 C   0  0  0  0  0  0  0  0  0  0  0  0
   -4.2330    3.5598   -0.3015 C   0  0  0  0  0  0  0  0  0  0  0  0
   -3.3221    4.4001   -0.9468 C   0  0  0  0  0  0  0  0  0  0  0  0
   -2.5161    3.9704   -1.9343 N   0  0  0  0  0  0  0  0  0  0  0  0
   -2.5928    2.6845   -2.3086 C   0  0  0  0  0  0  0  0  0  0  0  0
   -4.6516   -4.5728    1.0893 C   0  0  1  0  0  0  0  0  0  0  0  0
   -4.2101   -5.0100    2.5075 C   0  0  0  0  0  0  0  0  0  0  0  0
   -4.9987   -5.6832    3.2085 O   0  0  0  0  0  1  0  0  0  0  0  0
   -3.0603   -4.6405    2.8612 O   0  0  0  0  0  0  0  0  0  0  0  0
   -6.1438   -4.2298    1.0695 C   0  0  0  0  0  0  0  0  0  0  0  0
   -6.4779   -3.6982   -0.2209 O   0  0  0  0  0  0  0  0  0  0  0  0
   -5.0626    4.0749    0.7415 C   0  0  0  0  0  0  0  0  0  0  0  0
   -5.7391    4.4969    1.5900 N   0  0  0  0  0  0  0  0  0  0  0  0
    9.6638   -0.5999   -1.7876 H   0  0  0  0  0  0  0  0  0  0  0  0
    7.9759   -1.7889   -0.4039 H   0  0  0  0  0  0  0  0  0  0  0  0
    5.8718   -0.6497    0.2381 H   0  0  0  0  0  0  0  0  0  0  0  0
    7.1266    2.8694   -1.8991 H   0  0  0  0  0  0  0  0  0  0  0  0
    9.2353    1.7330   -2.5297 H   0  0  0  0  0  0  0  0  0  0  0  0
    6.2012    3.4836    0.5027 H   0  0  0  0  0  0  0  0  0  0  0  0
    4.2020    4.7190    1.2510 H   0  0  0  0  0  0  0  0  0  0  0  0
    1.9542    3.8256    0.8061 H   0  0  0  0  0  0  0  0  0  0  0  0
    3.5919   -0.7754   -0.8309 H   0  0  0  0  0  0  0  0  0  0  0  0
    4.4917   -0.0668   -2.1905 H   0  0  0  0  0  0  0  0  0  0  0  0
    2.7499    0.0912   -2.1279 H   0  0  0  0  0  0  0  0  0  0  0  0
    1.0939    1.3579   -1.5501 H   0  0  0  0  0  0  0  0  0  0  0  0
    0.5212    2.3527   -0.2117 H   0  0  0  0  0  0  0  0  0  0  0  0
    1.7519    0.2365    1.0650 H   0  0  0  0  0  0  0  0  0  0  0  0
   -1.0376    0.5168   -1.2492 H   0  0  0  0  0  0  0  0  0  0  0  0
   -1.7707   -2.2830    2.7596 H   0  0  0  0  0  0  0  0  0  0  0  0
    0.4056   -1.9041    3.5072 H   0  0  0  0  0  0  0  0  0  0  0  0
    1.6092   -1.6550    2.2313 H   0  0  0  0  0  0  0  0  0  0  0  0
    0.9944   -0.2678    3.1626 H   0  0  0  0  0  0  0  0  0  0  0  0
   -4.0899   -2.3460    2.2921 H   0  0  0  0  0  0  0  0  0  0  0  0
   -4.7967   -1.5888    0.8487 H   0  0  0  0  0  0  0  0  0  0  0  0
   -2.8524   -3.7313    0.5355 H   0  0  0  0  0  0  0  0  0  0  0  0
   -4.1191   -3.3101   -0.4708 H   0  0  0  0  0  0  0  0  0  0  0  0
   -4.3655    0.1645   -2.7815 H   0  0  0  0  0  0  0  0  0  0  0  0
   -2.6092    0.0955   -2.7714 H   0  0  0  0  0  0  0  0  0  0  0  0
   -5.0011    1.5413   -0.1921 H   0  0  0  0  0  0  0  0  0  0  0  0
   -3.2571    5.4415   -0.6442 H   0  0  0  0  0  0  0  0  0  0  0  0
   -1.9379    2.3421   -3.1043 H   0  0  0  0  0  0  0  0  0  0  0  0
   -4.5251   -5.4622    0.4666 H   0  0  0  0  0  0  0  0  0  0  0  0
   -6.3794   -3.4960    1.8480 H   0  0  0  0  0  0  0  0  0  0  0  0
   -6.7348   -5.1309    1.2667 H   0  0  0  0  0  0  0  0  0  0  0  0
   -7.4409   -3.5639   -0.2797 H   0  0  0  0  0  0  0  0  0  0  0  0
  1  2  2  0
  1  6  1  0
  2  3  1  0
  3  4  2  0
  4  5  1  0
  4  7  1  0
  5  6  2  0
  7  8  2  0
  7 12  1  0
  8  9  1  0
  9 10  2  0
 10 11  1  0
 11 12  2  0
 11 14  1  0
 12 13  1  0
 14 15  1  0
 15 16  1  0
 16 17  2  0
 16 21  1  0
 17 18  1  0
 18 19  2  0
 18 25  1  0
 19 20  1  0
 19 23  1  0
 20 21  2  0
 21 22  1  0
 23 24  1  0
 24 33  1  0
 25 26  1  0
 26 27  1  0
 27 28  2  0
 27 32  1  0
 28 29  1  0
 29 30  2  0
 29 39  1  0
 30 31  1  0
 31 32  2  0
 33 34  1  0
 33 37  1  0
 34 35  1  0
 34 36  2  0
 37 38  1  0
 39 40  3  0
  1 41  1  0
  2 42  1  0
  3 43  1  0
  5 44  1  0
  6 45  1  0
  8 46  1  0
  9 47  1  0
 10 48  1  0
 13 49  1  0
 13 50  1  0
 13 51  1  0
 14 52  1  0
 14 53  1  0
 15 54  1  0
 17 55  1  0
 20 56  1  0
 22 57  1  0
 22 58  1  0
 22 59  1  0
 23 60  1  0
 23 61  1  0
 24 62  1  0
 24 63  1  0
 26 64  1  0
 26 65  1  0
 28 66  1  0
 30 67  1  0
 32 68  1  0
 33 69  1  6
 37 70  1  0
 37 71  1  0
 38 72  1  0
M  CHG  2  24   1  35  -1
M  END
>  <%C>  (1) 
98.790520000000001

>  <mol_id>  (1) 
4

>  <isomer_id>  (1) 
1

>  <CID>  (1) 
10

>  <Energy>  (1) 
87.06028951720414

$$$$
