PD1-PDL1.sdf
     RDKit          3D

 72 75  0  0  0  0  0  0  0  0999 V2000
    5.7698    0.1913   -3.3682 C   0  0  0  0  0  0  0  0  0  0  0  0
    5.8886    1.5588   -3.1028 C   0  0  0  0  0  0  0  0  0  0  0  0
    5.3234    2.0982   -1.9417 C   0  0  0  0  0  0  0  0  0  0  0  0
    4.6272    1.2801   -1.0384 C   0  0  0  0  0  0  0  0  0  0  0  0
    4.5236   -0.0935   -1.3105 C   0  0  0  0  0  0  0  0  0  0  0  0
    5.0893   -0.6357   -2.4699 C   0  0  0  0  0  0  0  0  0  0  0  0
    4.0400    1.8575    0.1827 C   0  0  0  0  0  0  0  0  0  0  0  0
    4.9094    2.4990    1.0746 C   0  0  0  0  0  0  0  0  0  0  0  0
    4.4387    3.0456    2.2646 C   0  0  0  0  0  0  0  0  0  0  0  0
    3.0848    2.9600    2.5760 C   0  0  0  0  0  0  0  0  0  0  0  0
    2.1789    2.3412    1.7003 C   0  0  0  0  0  0  0  0  0  0  0  0
    2.6539    1.7858    0.4801 C   0  0  0  0  0  0  0  0  0  0  0  0
    1.7092    1.1259   -0.5109 C   0  0  0  0  0  0  0  0  0  0  0  0
    0.7262    2.2987    2.1181 C   0  0  0  0  0  0  0  0  0  0  0  0
    0.4154    0.9305    2.5691 N   0  0  0  0  0  0  0  0  0  0  0  0
   -0.4530    0.0880    1.8749 C   0  0  0  0  0  0  0  0  0  0  0  0
   -1.6202    0.5872    1.2923 C   0  0  0  0  0  0  0  0  0  0  0  0
   -2.4668   -0.2291    0.5256 C   0  0  0  0  0  0  0  0  0  0  0  0
   -2.1508   -1.5884    0.4035 C   0  0  0  0  0  0  0  0  0  0  0  0
   -1.0020   -2.1052    1.0187 C   0  0  0  0  0  0  0  0  0  0  0  0
   -0.1453   -1.2766    1.7528 C   0  0  0  0  0  0  0  0  0  0  0  0
    1.0990   -1.8623    2.3790 C   0  0  0  0  0  0  0  0  0  0  0  0
   -3.0287   -2.5073   -0.3876 C   0  0  0  0  0  0  0  0  0  0  0  0
   -3.7938   -3.2805    0.5917 N   0  0  0  0  0  4  0  0  0  0  0  0
   -3.5983    0.2211   -0.1222 O   0  0  0  0  0  0  0  0  0  0  0  0
   -3.7296    1.6229   -0.4206 C   0  0  0  0  0  0  0  0  0  0  0  0
   -2.6194    2.0940   -1.3305 C   0  0  0  0  0  0  0  0  0  0  0  0
   -1.8351    3.2029   -1.0003 C   0  0  0  0  0  0  0  0  0  0  0  0
   -0.7939    3.5601   -1.8553 C   0  0  0  0  0  0  0  0  0  0  0  0
   -0.5824    2.8139   -3.0178 C   0  0  0  0  0  0  0  0  0  0  0  0
   -1.3454    1.7564   -3.3440 N   0  0  0  0  0  0  0  0  0  0  0  0
   -2.3397    1.3988   -2.5151 C   0  0  0  0  0  0  0  0  0  0  0  0
   -4.1843   -4.6350    0.1007 C   0  0  1  0  0  0  0  0  0  0  0  0
   -3.1226   -5.7092    0.4040 C   0  0  0  0  0  0  0  0  0  0  0  0
   -2.2098   -5.3587    1.1983 O   0  0  0  0  0  1  0  0  0  0  0  0
   -3.2404   -6.8390   -0.1174 O   0  0  0  0  0  0  0  0  0  0  0  0
   -5.4875   -5.0499    0.7804 C   0  0  0  0  0  0  0  0  0  0  0  0
   -6.3677   -3.9158    0.8346 O   0  0  0  0  0  0  0  0  0  0  0  0
    0.0608    4.6626   -1.5473 C   0  0  0  0  0  0  0  0  0  0  0  0
    0.7523    5.5618   -1.2858 N   0  0  0  0  0  0  0  0  0  0  0  0
    6.2074   -0.2283   -4.2693 H   0  0  0  0  0  0  0  0  0  0  0  0
    6.4175    2.2028   -3.7991 H   0  0  0  0  0  0  0  0  0  0  0  0
    5.4142    3.1623   -1.7444 H   0  0  0  0  0  0  0  0  0  0  0  0
    4.0058   -0.7434   -0.6121 H   0  0  0  0  0  0  0  0  0  0  0  0
    5.0018   -1.6994   -2.6707 H   0  0  0  0  0  0  0  0  0  0  0  0
    5.9694    2.5558    0.8451 H   0  0  0  0  0  0  0  0  0  0  0  0
    5.1278    3.5309    2.9497 H   0  0  0  0  0  0  0  0  0  0  0  0
    2.7394    3.3876    3.5129 H   0  0  0  0  0  0  0  0  0  0  0  0
    2.0244    1.3230   -1.5394 H   0  0  0  0  0  0  0  0  0  0  0  0
    1.6957    0.0446   -0.3499 H   0  0  0  0  0  0  0  0  0  0  0  0
    0.6885    1.4953   -0.4205 H   0  0  0  0  0  0  0  0  0  0  0  0
    0.5437    2.9974    2.9415 H   0  0  0  0  0  0  0  0  0  0  0  0
    0.0946    2.6290    1.2905 H   0  0  0  0  0  0  0  0  0  0  0  0
    1.2095    0.4506    2.9897 H   0  0  0  0  0  0  0  0  0  0  0  0
   -1.8597    1.6284    1.4492 H   0  0  0  0  0  0  0  0  0  0  0  0
   -0.7682   -3.1644    0.9185 H   0  0  0  0  0  0  0  0  0  0  0  0
    1.1649   -2.9393    2.1942 H   0  0  0  0  0  0  0  0  0  0  0  0
    1.9916   -1.3879    1.9593 H   0  0  0  0  0  0  0  0  0  0  0  0
    1.0895   -1.7037    3.4617 H   0  0  0  0  0  0  0  0  0  0  0  0
   -3.6896   -1.9402   -1.0539 H   0  0  0  0  0  0  0  0  0  0  0  0
   -2.4085   -3.1670   -1.0071 H   0  0  0  0  0  0  0  0  0  0  0  0
   -3.1967   -3.4211    1.4163 H   0  0  0  0  0  0  0  0  0  0  0  0
   -4.6389   -2.7726    0.8659 H   0  0  0  0  0  0  0  0  0  0  0  0
   -3.7571    2.2081    0.5043 H   0  0  0  0  0  0  0  0  0  0  0  0
   -4.6890    1.7844   -0.9228 H   0  0  0  0  0  0  0  0  0  0  0  0
   -2.0155    3.7696   -0.0895 H   0  0  0  0  0  0  0  0  0  0  0  0
    0.2294    3.0918   -3.6842 H   0  0  0  0  0  0  0  0  0  0  0  0
   -2.9447    0.5348   -2.7745 H   0  0  0  0  0  0  0  0  0  0  0  0
   -4.3386   -4.6185   -0.9814 H   0  0  0  0  0  0  0  0  0  0  0  0
   -5.9505   -5.8701    0.2210 H   0  0  0  0  0  0  0  0  0  0  0  0
   -5.2898   -5.4039    1.7986 H   0  0  0  0  0  0  0  0  0  0  0  0
   -7.2423   -4.1929    1.1651 H   0  0  0  0  0  0  0  0  0  0  0  0
  1  2  2  0
  1  6  1  0
  2  3  1  0
  3  4  2  0
  4  5  1  0
  4  7  1  0
  5  6  2  0
  7  8  2  0
  7 12  1  0
  8  9  1  0
  9 10  2  0
 10 11  1  0
 11 12  2  0
 11 14  1  0
 12 13  1  0
 14 15  1  0
 15 16  1  0
 16 17  2  0
 16 21  1  0
 17 18  1  0
 18 19  2  0
 18 25  1  0
 19 20  1  0
 19 23  1  0
 20 21  2  0
 21 22  1  0
 23 24  1  0
 24 33  1  0
 25 26  1  0
 26 27  1  0
 27 28  2  0
 27 32  1  0
 28 29  1  0
 29 30  2  0
 29 39  1  0
 30 31  1  0
 31 32  2  0
 33 34  1  0
 33 37  1  0
 34 35  1  0
 34 36  2  0
 37 38  1  0
 39 40  3  0
  1 41  1  0
  2 42  1  0
  3 43  1  0
  5 44  1  0
  6 45  1  0
  8 46  1  0
  9 47  1  0
 10 48  1  0
 13 49  1  0
 13 50  1  0
 13 51  1  0
 14 52  1  0
 14 53  1  0
 15 54  1  0
 17 55  1  0
 20 56  1  0
 22 57  1  0
 22 58  1  0
 22 59  1  0
 23 60  1  0
 23 61  1  0
 24 62  1  0
 24 63  1  0
 26 64  1  0
 26 65  1  0
 28 66  1  0
 30 67  1  0
 32 68  1  0
 33 69  1  6
 37 70  1  0
 37 71  1  0
 38 72  1  0
M  CHG  2  24   1  35  -1
M  END
>  <%C>  (1) 
98.790520000000001

>  <mol_id>  (1) 
4

>  <isomer_id>  (1) 
1

>  <CID>  (1) 
10

>  <Energy>  (1) 
87.06028951720414

$$$$
