PD1-PDL1.sdf
     RDKit          3D

 72 75  0  0  0  0  0  0  0  0999 V2000
    9.3646    0.7834    1.4098 C   0  0  0  0  0  0  0  0  0  0  0  0
    9.0657   -0.1413    0.4047 C   0  0  0  0  0  0  0  0  0  0  0  0
    7.8668   -0.0353   -0.3089 C   0  0  0  0  0  0  0  0  0  0  0  0
    6.9521    0.9910   -0.0240 C   0  0  0  0  0  0  0  0  0  0  0  0
    7.2689    1.9201    0.9801 C   0  0  0  0  0  0  0  0  0  0  0  0
    8.4660    1.8155    1.6969 C   0  0  0  0  0  0  0  0  0  0  0  0
    5.6977    1.0990   -0.7885 C   0  0  0  0  0  0  0  0  0  0  0  0
    5.7995    1.2041   -2.1832 C   0  0  0  0  0  0  0  0  0  0  0  0
    4.6634    1.3246   -2.9788 C   0  0  0  0  0  0  0  0  0  0  0  0
    3.4053    1.3485   -2.3848 C   0  0  0  0  0  0  0  0  0  0  0  0
    3.2638    1.2484   -0.9929 C   0  0  0  0  0  0  0  0  0  0  0  0
    4.4157    1.1001   -0.1779 C   0  0  0  0  0  0  0  0  0  0  0  0
    4.2734    0.9216    1.3244 C   0  0  0  0  0  0  0  0  0  0  0  0
    1.8635    1.2787   -0.4294 C   0  0  0  0  0  0  0  0  0  0  0  0
    1.4320   -0.1184   -0.2819 N   0  0  0  0  0  0  0  0  0  0  0  0
    0.1407   -0.5796   -0.5345 C   0  0  0  0  0  0  0  0  0  0  0  0
   -0.9625    0.2755   -0.4511 C   0  0  0  0  0  0  0  0  0  0  0  0
   -2.2613   -0.1863   -0.7055 C   0  0  0  0  0  0  0  0  0  0  0  0
   -2.4492   -1.5335   -1.0517 C   0  0  0  0  0  0  0  0  0  0  0  0
   -1.3483   -2.3962   -1.1202 C   0  0  0  0  0  0  0  0  0  0  0  0
   -0.0519   -1.9323   -0.8627 C   0  0  0  0  0  0  0  0  0  0  0  0
    1.1134   -2.8921   -0.9441 C   0  0  0  0  0  0  0  0  0  0  0  0
   -3.8292   -2.0723   -1.3077 C   0  0  0  0  0  0  0  0  0  0  0  0
   -4.6083   -1.8992   -0.0737 N   0  0  0  0  0  4  0  0  0  0  0  0
   -3.3715    0.6225   -0.6418 O   0  0  0  0  0  0  0  0  0  0  0  0
   -3.3956    1.6202    0.3914 C   0  0  0  0  0  0  0  0  0  0  0  0
   -4.8072    2.1325    0.5057 C   0  0  0  0  0  0  0  0  0  0  0  0
   -5.4679    2.6379   -0.6176 C   0  0  0  0  0  0  0  0  0  0  0  0
   -6.7704    3.1109   -0.4704 C   0  0  0  0  0  0  0  0  0  0  0  0
   -7.3657    3.0727    0.7927 C   0  0  0  0  0  0  0  0  0  0  0  0
   -6.7336    2.5886    1.8738 N   0  0  0  0  0  0  0  0  0  0  0  0
   -5.4806    2.1179    1.7383 C   0  0  0  0  0  0  0  0  0  0  0  0
   -4.2002   -2.7983    1.0542 C   0  0  1  0  0  0  0  0  0  0  0  0
   -4.2233   -2.0519    2.4069 C   0  0  0  0  0  0  0  0  0  0  0  0
   -4.0663   -2.7072    3.4668 O   0  0  0  0  0  1  0  0  0  0  0  0
   -4.4283   -0.8121    2.3360 O   0  0  0  0  0  0  0  0  0  0  0  0
   -5.0791   -4.0476    1.1290 C   0  0  0  0  0  0  0  0  0  0  0  0
   -4.5130   -4.9348    2.0878 O   0  0  0  0  0  0  0  0  0  0  0  0
   -7.4962    3.6255   -1.5880 C   0  0  0  0  0  0  0  0  0  0  0  0
   -8.0866    4.0381   -2.5032 N   0  0  0  0  0  0  0  0  0  0  0  0
   10.2943    0.7009    1.9651 H   0  0  0  0  0  0  0  0  0  0  0  0
    9.7627   -0.9428    0.1783 H   0  0  0  0  0  0  0  0  0  0  0  0
    7.6391   -0.7619   -1.0831 H   0  0  0  0  0  0  0  0  0  0  0  0
    6.5827    2.7327    1.1977 H   0  0  0  0  0  0  0  0  0  0  0  0
    8.6976    2.5387    2.4734 H   0  0  0  0  0  0  0  0  0  0  0  0
    6.7787    1.2055   -2.6530 H   0  0  0  0  0  0  0  0  0  0  0  0
    4.7590    1.4068   -4.0577 H   0  0  0  0  0  0  0  0  0  0  0  0
    2.5265    1.4425   -3.0168 H   0  0  0  0  0  0  0  0  0  0  0  0
    4.2495    1.8984    1.8159 H   0  0  0  0  0  0  0  0  0  0  0  0
    3.3592    0.3800    1.5798 H   0  0  0  0  0  0  0  0  0  0  0  0
    5.1039    0.3423    1.7369 H   0  0  0  0  0  0  0  0  0  0  0  0
    1.8350    1.7988    0.5337 H   0  0  0  0  0  0  0  0  0  0  0  0
    1.2081    1.8247   -1.1166 H   0  0  0  0  0  0  0  0  0  0  0  0
    2.1751   -0.8085   -0.3778 H   0  0  0  0  0  0  0  0  0  0  0  0
   -0.8044    1.3103   -0.1815 H   0  0  0  0  0  0  0  0  0  0  0  0
   -1.5004   -3.4432   -1.3673 H   0  0  0  0  0  0  0  0  0  0  0  0
    1.8188   -2.5655   -1.7146 H   0  0  0  0  0  0  0  0  0  0  0  0
    0.7781   -3.9031   -1.1939 H   0  0  0  0  0  0  0  0  0  0  0  0
    1.6354   -2.9361    0.0168 H   0  0  0  0  0  0  0  0  0  0  0  0
   -3.7798   -3.1295   -1.5944 H   0  0  0  0  0  0  0  0  0  0  0  0
   -4.2834   -1.5151   -2.1362 H   0  0  0  0  0  0  0  0  0  0  0  0
   -4.4539   -0.9314    0.2622 H   0  0  0  0  0  0  0  0  0  0  0  0
   -5.6037   -2.0045   -0.2603 H   0  0  0  0  0  0  0  0  0  0  0  0
   -3.0584    1.1983    1.3460 H   0  0  0  0  0  0  0  0  0  0  0  0
   -2.7309    2.4516    0.1365 H   0  0  0  0  0  0  0  0  0  0  0  0
   -4.9763    2.6555   -1.5884 H   0  0  0  0  0  0  0  0  0  0  0  0
   -8.3795    3.4447    0.9111 H   0  0  0  0  0  0  0  0  0  0  0  0
   -4.9779    1.7271    2.6181 H   0  0  0  0  0  0  0  0  0  0  0  0
   -3.1669   -3.1245    0.9065 H   0  0  0  0  0  0  0  0  0  0  0  0
   -5.1249   -4.5425    0.1536 H   0  0  0  0  0  0  0  0  0  0  0  0
   -6.0985   -3.7770    1.4238 H   0  0  0  0  0  0  0  0  0  0  0  0
   -4.3211   -4.4121    2.9107 H   0  0  0  0  0  0  0  0  0  0  0  0
  1  2  2  0
  1  6  1  0
  2  3  1  0
  3  4  2  0
  4  5  1  0
  4  7  1  0
  5  6  2  0
  7  8  2  0
  7 12  1  0
  8  9  1  0
  9 10  2  0
 10 11  1  0
 11 12  2  0
 11 14  1  0
 12 13  1  0
 14 15  1  0
 15 16  1  0
 16 17  2  0
 16 21  1  0
 17 18  1  0
 18 19  2  0
 18 25  1  0
 19 20  1  0
 19 23  1  0
 20 21  2  0
 21 22  1  0
 23 24  1  0
 24 33  1  0
 25 26  1  0
 26 27  1  0
 27 28  2  0
 27 32  1  0
 28 29  1  0
 29 30  2  0
 29 39  1  0
 30 31  1  0
 31 32  2  0
 33 34  1  0
 33 37  1  0
 34 35  1  0
 34 36  2  0
 37 38  1  0
 39 40  3  0
  1 41  1  0
  2 42  1  0
  3 43  1  0
  5 44  1  0
  6 45  1  0
  8 46  1  0
  9 47  1  0
 10 48  1  0
 13 49  1  0
 13 50  1  0
 13 51  1  0
 14 52  1  0
 14 53  1  0
 15 54  1  0
 17 55  1  0
 20 56  1  0
 22 57  1  0
 22 58  1  0
 22 59  1  0
 23 60  1  0
 23 61  1  0
 24 62  1  0
 24 63  1  0
 26 64  1  0
 26 65  1  0
 28 66  1  0
 30 67  1  0
 32 68  1  0
 33 69  1  6
 37 70  1  0
 37 71  1  0
 38 72  1  0
M  CHG  2  24   1  35  -1
M  END
>  <%C>  (1) 
98.790520000000001

>  <mol_id>  (1) 
4

>  <isomer_id>  (1) 
1

>  <CID>  (1) 
10

>  <Energy>  (1) 
87.06028951720414

$$$$
