PD1-PDL1.sdf
     RDKit          3D

 72 75  0  0  0  0  0  0  0  0999 V2000
    8.6052    1.1503   -3.0422 C   0  0  0  0  0  0  0  0  0  0  0  0
    8.6517    0.1652   -2.0516 C   0  0  0  0  0  0  0  0  0  0  0  0
    7.7187    0.1766   -1.0091 C   0  0  0  0  0  0  0  0  0  0  0  0
    6.7255    1.1669   -0.9458 C   0  0  0  0  0  0  0  0  0  0  0  0
    6.6948    2.1565   -1.9421 C   0  0  0  0  0  0  0  0  0  0  0  0
    7.6267    2.1472   -2.9866 C   0  0  0  0  0  0  0  0  0  0  0  0
    5.7620    1.1790    0.1698 C   0  0  0  0  0  0  0  0  0  0  0  0
    6.2861    1.2157    1.4698 C   0  0  0  0  0  0  0  0  0  0  0  0
    5.4491    1.2518    2.5814 C   0  0  0  0  0  0  0  0  0  0  0  0
    4.0687    1.2599    2.4058 C   0  0  0  0  0  0  0  0  0  0  0  0
    3.5064    1.2238    1.1216 C   0  0  0  0  0  0  0  0  0  0  0  0
    4.3539    1.1585   -0.0151 C   0  0  0  0  0  0  0  0  0  0  0  0
    3.7561    1.0367   -1.4059 C   0  0  0  0  0  0  0  0  0  0  0  0
    1.9994    1.2279    1.0189 C   0  0  0  0  0  0  0  0  0  0  0  0
    1.5605   -0.1734    1.0120 N   0  0  0  0  0  0  0  0  0  0  0  0
    0.2897   -0.6134    0.6430 C   0  0  0  0  0  0  0  0  0  0  0  0
   -0.7975    0.2670    0.6083 C   0  0  0  0  0  0  0  0  0  0  0  0
   -2.0836   -0.1743    0.2506 C   0  0  0  0  0  0  0  0  0  0  0  0
   -2.2644   -1.5257   -0.0692 C   0  0  0  0  0  0  0  0  0  0  0  0
   -1.1814   -2.4124   -0.0292 C   0  0  0  0  0  0  0  0  0  0  0  0
    0.0976   -1.9681    0.3248 C   0  0  0  0  0  0  0  0  0  0  0  0
    1.2400   -2.9565    0.3653 C   0  0  0  0  0  0  0  0  0  0  0  0
   -3.6176   -2.0475   -0.4419 C   0  0  0  0  0  0  0  0  0  0  0  0
   -4.1538   -2.6696    0.7695 N   0  0  0  0  0  4  0  0  0  0  0  0
   -3.2003    0.6293    0.2138 O   0  0  0  0  0  0  0  0  0  0  0  0
   -3.0283    2.0466    0.3184 C   0  0  0  0  0  0  0  0  0  0  0  0
   -4.3601    2.6802    0.0363 C   0  0  0  0  0  0  0  0  0  0  0  0
   -4.6743    3.1591   -1.2380 C   0  0  0  0  0  0  0  0  0  0  0  0
   -5.9339    3.7216   -1.4428 C   0  0  0  0  0  0  0  0  0  0  0  0
   -6.8337    3.7801   -0.3748 C   0  0  0  0  0  0  0  0  0  0  0  0
   -6.5335    3.3128    0.8500 N   0  0  0  0  0  0  0  0  0  0  0  0
   -5.3225    2.7684    1.0498 C   0  0  0  0  0  0  0  0  0  0  0  0
   -5.0508   -3.8322    0.4996 C   0  0  1  0  0  0  0  0  0  0  0  0
   -4.2964   -5.1748    0.4668 C   0  0  0  0  0  0  0  0  0  0  0  0
   -4.8944   -6.1929    0.0562 O   0  0  0  0  0  1  0  0  0  0  0  0
   -3.1006   -5.1345    0.8607 O   0  0  0  0  0  0  0  0  0  0  0  0
   -6.1067   -3.9092    1.6009 C   0  0  0  0  0  0  0  0  0  0  0  0
   -6.5516   -2.5800    1.9157 O   0  0  0  0  0  0  0  0  0  0  0  0
   -6.3138    4.2307   -2.7223 C   0  0  0  0  0  0  0  0  0  0  0  0
   -6.6235    4.6479   -3.7645 N   0  0  0  0  0  0  0  0  0  0  0  0
    9.3301    1.1429   -3.8512 H   0  0  0  0  0  0  0  0  0  0  0  0
    9.4123   -0.6090   -2.0903 H   0  0  0  0  0  0  0  0  0  0  0  0
    7.7598   -0.5953   -0.2466 H   0  0  0  0  0  0  0  0  0  0  0  0
    5.9482    2.9433   -1.8972 H   0  0  0  0  0  0  0  0  0  0  0  0
    7.5934    2.9177   -3.7512 H   0  0  0  0  0  0  0  0  0  0  0  0
    7.3621    1.2293    1.6167 H   0  0  0  0  0  0  0  0  0  0  0  0
    5.8723    1.2791    3.5813 H   0  0  0  0  0  0  0  0  0  0  0  0
    3.4265    1.2884    3.2818 H   0  0  0  0  0  0  0  0  0  0  0  0
    2.8395    0.4411   -1.3929 H   0  0  0  0  0  0  0  0  0  0  0  0
    3.5242    2.0294   -1.8021 H   0  0  0  0  0  0  0  0  0  0  0  0
    4.4430    0.5365   -2.0939 H   0  0  0  0  0  0  0  0  0  0  0  0
    1.6750    1.7492    0.1121 H   0  0  0  0  0  0  0  0  0  0  0  0
    1.5654    1.7551    1.8754 H   0  0  0  0  0  0  0  0  0  0  0  0
    2.3045   -0.8699    0.9975 H   0  0  0  0  0  0  0  0  0  0  0  0
   -0.6305    1.2982    0.8844 H   0  0  0  0  0  0  0  0  0  0  0  0
   -1.3398   -3.4636   -0.2659 H   0  0  0  0  0  0  0  0  0  0  0  0
    0.9032   -3.9604    0.0875 H   0  0  0  0  0  0  0  0  0  0  0  0
    2.0274   -2.6555   -0.3327 H   0  0  0  0  0  0  0  0  0  0  0  0
    1.6601   -3.0056    1.3746 H   0  0  0  0  0  0  0  0  0  0  0  0
   -4.2637   -1.2349   -0.7956 H   0  0  0  0  0  0  0  0  0  0  0  0
   -3.5223   -2.7823   -1.2507 H   0  0  0  0  0  0  0  0  0  0  0  0
   -4.6687   -1.9803    1.3235 H   0  0  0  0  0  0  0  0  0  0  0  0
   -3.3594   -3.0248    1.3172 H   0  0  0  0  0  0  0  0  0  0  0  0
   -2.6879    2.3187    1.3237 H   0  0  0  0  0  0  0  0  0  0  0  0
   -2.2837    2.4017   -0.4031 H   0  0  0  0  0  0  0  0  0  0  0  0
   -3.9595    3.0901   -2.0557 H   0  0  0  0  0  0  0  0  0  0  0  0
   -7.8156    4.2169   -0.5349 H   0  0  0  0  0  0  0  0  0  0  0  0
   -5.0846    2.3832    2.0370 H   0  0  0  0  0  0  0  0  0  0  0  0
   -5.5544   -3.7125   -0.4630 H   0  0  0  0  0  0  0  0  0  0  0  0
   -6.9468   -4.5269    1.2645 H   0  0  0  0  0  0  0  0  0  0  0  0
   -5.6853   -4.3720    2.5005 H   0  0  0  0  0  0  0  0  0  0  0  0
   -7.3149   -2.6231    2.5211 H   0  0  0  0  0  0  0  0  0  0  0  0
  1  2  2  0
  1  6  1  0
  2  3  1  0
  3  4  2  0
  4  5  1  0
  4  7  1  0
  5  6  2  0
  7  8  2  0
  7 12  1  0
  8  9  1  0
  9 10  2  0
 10 11  1  0
 11 12  2  0
 11 14  1  0
 12 13  1  0
 14 15  1  0
 15 16  1  0
 16 17  2  0
 16 21  1  0
 17 18  1  0
 18 19  2  0
 18 25  1  0
 19 20  1  0
 19 23  1  0
 20 21  2  0
 21 22  1  0
 23 24  1  0
 24 33  1  0
 25 26  1  0
 26 27  1  0
 27 28  2  0
 27 32  1  0
 28 29  1  0
 29 30  2  0
 29 39  1  0
 30 31  1  0
 31 32  2  0
 33 34  1  0
 33 37  1  0
 34 35  1  0
 34 36  2  0
 37 38  1  0
 39 40  3  0
  1 41  1  0
  2 42  1  0
  3 43  1  0
  5 44  1  0
  6 45  1  0
  8 46  1  0
  9 47  1  0
 10 48  1  0
 13 49  1  0
 13 50  1  0
 13 51  1  0
 14 52  1  0
 14 53  1  0
 15 54  1  0
 17 55  1  0
 20 56  1  0
 22 57  1  0
 22 58  1  0
 22 59  1  0
 23 60  1  0
 23 61  1  0
 24 62  1  0
 24 63  1  0
 26 64  1  0
 26 65  1  0
 28 66  1  0
 30 67  1  0
 32 68  1  0
 33 69  1  6
 37 70  1  0
 37 71  1  0
 38 72  1  0
M  CHG  2  24   1  35  -1
M  END
>  <%C>  (1) 
98.790520000000001

>  <mol_id>  (1) 
4

>  <isomer_id>  (1) 
1

>  <CID>  (1) 
10

>  <Energy>  (1) 
87.06028951720414

$$$$
