PD1-PDL1.sdf
     RDKit          3D

 72 75  0  0  0  0  0  0  0  0999 V2000
    8.5640   -0.6455   -2.6932 C   0  0  0  0  0  0  0  0  0  0  0  0
    7.5232    0.0635   -3.3004 C   0  0  0  0  0  0  0  0  0  0  0  0
    6.5784    0.7308   -2.5130 C   0  0  0  0  0  0  0  0  0  0  0  0
    6.6599    0.6943   -1.1119 C   0  0  0  0  0  0  0  0  0  0  0  0
    7.7134   -0.0158   -0.5141 C   0  0  0  0  0  0  0  0  0  0  0  0
    8.6586   -0.6857   -1.2990 C   0  0  0  0  0  0  0  0  0  0  0  0
    5.6856    1.4189   -0.2783 C   0  0  0  0  0  0  0  0  0  0  0  0
    6.1902    2.3847    0.6040 C   0  0  0  0  0  0  0  0  0  0  0  0
    5.3390    3.1356    1.4096 C   0  0  0  0  0  0  0  0  0  0  0  0
    3.9641    2.9333    1.3372 C   0  0  0  0  0  0  0  0  0  0  0  0
    3.4219    1.9772    0.4659 C   0  0  0  0  0  0  0  0  0  0  0  0
    4.2855    1.1898   -0.3397 C   0  0  0  0  0  0  0  0  0  0  0  0
    3.7173    0.1044   -1.2377 C   0  0  0  0  0  0  0  0  0  0  0  0
    1.9204    1.8193    0.4506 C   0  0  0  0  0  0  0  0  0  0  0  0
    1.5918    0.7445    1.3955 N   0  0  0  0  0  0  0  0  0  0  0  0
    0.3426    0.1390    1.5231 C   0  0  0  0  0  0  0  0  0  0  0  0
   -0.8008    0.7170    0.9613 C   0  0  0  0  0  0  0  0  0  0  0  0
   -2.0573    0.1163    1.0989 C   0  0  0  0  0  0  0  0  0  0  0  0
   -2.1680   -1.0781    1.8225 C   0  0  0  0  0  0  0  0  0  0  0  0
   -1.0289   -1.6610    2.3909 C   0  0  0  0  0  0  0  0  0  0  0  0
    0.2304   -1.0626    2.2460 C   0  0  0  0  0  0  0  0  0  0  0  0
    1.4434   -1.7178    2.8668 C   0  0  0  0  0  0  0  0  0  0  0  0
   -3.5028   -1.7454    1.9420 C   0  0  0  0  0  0  0  0  0  0  0  0
   -3.6643   -2.4660    0.6789 N   0  0  0  0  0  4  0  0  0  0  0  0
   -3.2040    0.6660    0.5836 O   0  0  0  0  0  0  0  0  0  0  0  0
   -3.1575    1.1071   -0.7829 C   0  0  0  0  0  0  0  0  0  0  0  0
   -4.5324    1.5820   -1.1770 C   0  0  0  0  0  0  0  0  0  0  0  0
   -5.2230    2.5034   -0.3835 C   0  0  0  0  0  0  0  0  0  0  0  0
   -6.4870    2.9245   -0.7942 C   0  0  0  0  0  0  0  0  0  0  0  0
   -7.0149    2.4200   -1.9849 C   0  0  0  0  0  0  0  0  0  0  0  0
   -6.3527    1.5397   -2.7525 N   0  0  0  0  0  0  0  0  0  0  0  0
   -5.1397    1.1168   -2.3545 C   0  0  0  0  0  0  0  0  0  0  0  0
   -5.0674   -2.7130    0.2398 C   0  0  1  0  0  0  0  0  0  0  0  0
   -5.1098   -2.7418   -1.3064 C   0  0  0  0  0  0  0  0  0  0  0  0
   -5.6190   -3.7279   -1.8924 O   0  0  0  0  0  1  0  0  0  0  0  0
   -4.3467   -1.8978   -1.8441 O   0  0  0  0  0  0  0  0  0  0  0  0
   -5.5573   -4.0272    0.8504 C   0  0  0  0  0  0  0  0  0  0  0  0
   -4.7108   -5.0676    0.3617 O   0  0  0  0  0  0  0  0  0  0  0  0
   -7.2405    3.8596   -0.0199 C   0  0  0  0  0  0  0  0  0  0  0  0
   -7.8541    4.6223    0.6110 N   0  0  0  0  0  0  0  0  0  0  0  0
    9.2991   -1.1622   -3.3035 H   0  0  0  0  0  0  0  0  0  0  0  0
    7.4507    0.1007   -4.3833 H   0  0  0  0  0  0  0  0  0  0  0  0
    5.7818    1.2922   -2.9915 H   0  0  0  0  0  0  0  0  0  0  0  0
    7.7925   -0.0531    0.5682 H   0  0  0  0  0  0  0  0  0  0  0  0
    9.4659   -1.2360   -0.8246 H   0  0  0  0  0  0  0  0  0  0  0  0
    7.2603    2.5650    0.6509 H   0  0  0  0  0  0  0  0  0  0  0  0
    5.7466    3.8827    2.0845 H   0  0  0  0  0  0  0  0  0  0  0  0
    3.3114    3.5274    1.9710 H   0  0  0  0  0  0  0  0  0  0  0  0
    4.4435   -0.6962   -1.4043 H   0  0  0  0  0  0  0  0  0  0  0  0
    3.4366    0.5294   -2.2057 H   0  0  0  0  0  0  0  0  0  0  0  0
    2.8352   -0.3614   -0.7909 H   0  0  0  0  0  0  0  0  0  0  0  0
    1.4394    2.7541    0.7589 H   0  0  0  0  0  0  0  0  0  0  0  0
    1.5676    1.5836   -0.5589 H   0  0  0  0  0  0  0  0  0  0  0  0
    2.3856    0.2616    1.8131 H   0  0  0  0  0  0  0  0  0  0  0  0
   -0.7202    1.6594    0.4368 H   0  0  0  0  0  0  0  0  0  0  0  0
   -1.1207   -2.5893    2.9480 H   0  0  0  0  0  0  0  0  0  0  0  0
    1.8961   -1.0494    3.6058 H   0  0  0  0  0  0  0  0  0  0  0  0
    2.1854   -1.9458    2.0950 H   0  0  0  0  0  0  0  0  0  0  0  0
    1.1776   -2.6526    3.3700 H   0  0  0  0  0  0  0  0  0  0  0  0
   -3.5357   -2.4222    2.8036 H   0  0  0  0  0  0  0  0  0  0  0  0
   -4.2873   -0.9887    2.0688 H   0  0  0  0  0  0  0  0  0  0  0  0
   -3.1799   -3.3654    0.7222 H   0  0  0  0  0  0  0  0  0  0  0  0
   -3.2282   -1.9051   -0.0684 H   0  0  0  0  0  0  0  0  0  0  0  0
   -2.4512    1.9336   -0.9066 H   0  0  0  0  0  0  0  0  0  0  0  0
   -2.8330    0.2860   -1.4329 H   0  0  0  0  0  0  0  0  0  0  0  0
   -4.7855    2.8793    0.5392 H   0  0  0  0  0  0  0  0  0  0  0  0
   -7.9979    2.7503   -2.3089 H   0  0  0  0  0  0  0  0  0  0  0  0
   -4.6110    0.4054   -2.9817 H   0  0  0  0  0  0  0  0  0  0  0  0
   -5.7253   -1.9010    0.5616 H   0  0  0  0  0  0  0  0  0  0  0  0
   -6.5987   -4.2192    0.5691 H   0  0  0  0  0  0  0  0  0  0  0  0
   -5.5076   -3.9800    1.9428 H   0  0  0  0  0  0  0  0  0  0  0  0
   -4.8842   -5.1403   -0.6084 H   0  0  0  0  0  0  0  0  0  0  0  0
  1  2  2  0
  1  6  1  0
  2  3  1  0
  3  4  2  0
  4  5  1  0
  4  7  1  0
  5  6  2  0
  7  8  2  0
  7 12  1  0
  8  9  1  0
  9 10  2  0
 10 11  1  0
 11 12  2  0
 11 14  1  0
 12 13  1  0
 14 15  1  0
 15 16  1  0
 16 17  2  0
 16 21  1  0
 17 18  1  0
 18 19  2  0
 18 25  1  0
 19 20  1  0
 19 23  1  0
 20 21  2  0
 21 22  1  0
 23 24  1  0
 24 33  1  0
 25 26  1  0
 26 27  1  0
 27 28  2  0
 27 32  1  0
 28 29  1  0
 29 30  2  0
 29 39  1  0
 30 31  1  0
 31 32  2  0
 33 34  1  0
 33 37  1  0
 34 35  1  0
 34 36  2  0
 37 38  1  0
 39 40  3  0
  1 41  1  0
  2 42  1  0
  3 43  1  0
  5 44  1  0
  6 45  1  0
  8 46  1  0
  9 47  1  0
 10 48  1  0
 13 49  1  0
 13 50  1  0
 13 51  1  0
 14 52  1  0
 14 53  1  0
 15 54  1  0
 17 55  1  0
 20 56  1  0
 22 57  1  0
 22 58  1  0
 22 59  1  0
 23 60  1  0
 23 61  1  0
 24 62  1  0
 24 63  1  0
 26 64  1  0
 26 65  1  0
 28 66  1  0
 30 67  1  0
 32 68  1  0
 33 69  1  1
 37 70  1  0
 37 71  1  0
 38 72  1  0
M  CHG  2  24   1  35  -1
M  END
>  <%C>  (1) 
98.790520000000001

>  <mol_id>  (1) 
4

>  <isomer_id>  (1) 
1

>  <CID>  (1) 
10

>  <Energy>  (1) 
87.06028951720414

$$$$
