PD1-PDL1.sdf
     RDKit          3D

 72 75  0  0  0  0  0  0  0  0999 V2000
    6.6516   -1.2689   -2.1355 C   0  0  0  0  0  0  0  0  0  0  0  0
    6.7562    0.0835   -2.4734 C   0  0  0  0  0  0  0  0  0  0  0  0
    5.7179    0.9668   -2.1562 C   0  0  0  0  0  0  0  0  0  0  0  0
    4.5682    0.5111   -1.4915 C   0  0  0  0  0  0  0  0  0  0  0  0
    4.4712   -0.8521   -1.1673 C   0  0  0  0  0  0  0  0  0  0  0  0
    5.5076   -1.7374   -1.4836 C   0  0  0  0  0  0  0  0  0  0  0  0
    3.4728    1.4432   -1.1684 C   0  0  0  0  0  0  0  0  0  0  0  0
    2.9148    2.1759   -2.2253 C   0  0  0  0  0  0  0  0  0  0  0  0
    1.8540    3.0502   -2.0096 C   0  0  0  0  0  0  0  0  0  0  0  0
    1.3216    3.1861   -0.7312 C   0  0  0  0  0  0  0  0  0  0  0  0
    1.8493    2.4696    0.3557 C   0  0  0  0  0  0  0  0  0  0  0  0
    2.9662    1.6155    0.1474 C   0  0  0  0  0  0  0  0  0  0  0  0
    3.6317    0.9177    1.3204 C   0  0  0  0  0  0  0  0  0  0  0  0
    1.1948    2.6814    1.7111 C   0  0  0  0  0  0  0  0  0  0  0  0
    0.8514    1.4184    2.3951 N   0  0  0  0  0  0  0  0  0  0  0  0
   -0.1498    0.5146    2.0326 C   0  0  0  0  0  0  0  0  0  0  0  0
   -0.9034    0.6801    0.8676 C   0  0  0  0  0  0  0  0  0  0  0  0
   -1.8889   -0.2451    0.4897 C   0  0  0  0  0  0  0  0  0  0  0  0
   -2.1377   -1.3370    1.3305 C   0  0  0  0  0  0  0  0  0  0  0  0
   -1.3893   -1.5115    2.5003 C   0  0  0  0  0  0  0  0  0  0  0  0
   -0.3891   -0.5991    2.8557 C   0  0  0  0  0  0  0  0  0  0  0  0
    0.4114   -0.8350    4.1152 C   0  0  0  0  0  0  0  0  0  0  0  0
   -3.1772   -2.3539    0.9818 C   0  0  0  0  0  0  0  0  0  0  0  0
   -2.4652   -3.3968    0.2335 N   0  0  0  0  0  4  0  0  0  0  0  0
   -2.6368   -0.1436   -0.6629 O   0  0  0  0  0  0  0  0  0  0  0  0
   -2.0749    0.5609   -1.7847 C   0  0  0  0  0  0  0  0  0  0  0  0
   -2.3750    2.0424   -1.7574 C   0  0  0  0  0  0  0  0  0  0  0  0
   -3.3716    2.5945   -0.9432 C   0  0  0  0  0  0  0  0  0  0  0  0
   -3.5662    3.9751   -0.9727 C   0  0  0  0  0  0  0  0  0  0  0  0
   -2.7659    4.7563   -1.8096 C   0  0  0  0  0  0  0  0  0  0  0  0
   -1.8103    4.2286   -2.5950 N   0  0  0  0  0  0  0  0  0  0  0  0
   -1.6269    2.8993   -2.5734 C   0  0  0  0  0  0  0  0  0  0  0  0
   -3.0185   -4.7795    0.4192 C   0  0  1  0  0  0  0  0  0  0  0  0
   -2.9472   -5.2942    1.8765 C   0  0  0  0  0  0  0  0  0  0  0  0
   -1.9457   -4.9004    2.5269 O   0  0  0  0  0  1  0  0  0  0  0  0
   -3.8801   -5.9900    2.3388 O   0  0  0  0  0  0  0  0  0  0  0  0
   -4.4371   -4.8736   -0.1476 C   0  0  0  0  0  0  0  0  0  0  0  0
   -4.4433   -4.2774   -1.4531 O   0  0  0  0  0  0  0  0  0  0  0  0
   -4.5645    4.5964   -0.1612 C   0  0  0  0  0  0  0  0  0  0  0  0
   -5.3767    5.1086    0.4975 N   0  0  0  0  0  0  0  0  0  0  0  0
    7.4568   -1.9555   -2.3805 H   0  0  0  0  0  0  0  0  0  0  0  0
    7.6451    0.4488   -2.9793 H   0  0  0  0  0  0  0  0  0  0  0  0
    5.8104    2.0172   -2.4156 H   0  0  0  0  0  0  0  0  0  0  0  0
    3.5803   -1.2242   -0.6705 H   0  0  0  0  0  0  0  0  0  0  0  0
    5.4228   -2.7885   -1.2238 H   0  0  0  0  0  0  0  0  0  0  0  0
    3.3074    2.0551   -3.2307 H   0  0  0  0  0  0  0  0  0  0  0  0
    1.4382    3.6193   -2.8365 H   0  0  0  0  0  0  0  0  0  0  0  0
    0.4861    3.8659   -0.5877 H   0  0  0  0  0  0  0  0  0  0  0  0
    3.5804    1.5304    2.2237 H   0  0  0  0  0  0  0  0  0  0  0  0
    4.6919    0.7330    1.1268 H   0  0  0  0  0  0  0  0  0  0  0  0
    3.1386   -0.0390    1.5153 H   0  0  0  0  0  0  0  0  0  0  0  0
    1.8816    3.2573    2.3401 H   0  0  0  0  0  0  0  0  0  0  0  0
    0.2867    3.2854    1.6066 H   0  0  0  0  0  0  0  0  0  0  0  0
    1.3658    1.1979    3.2443 H   0  0  0  0  0  0  0  0  0  0  0  0
   -0.7129    1.5436    0.2494 H   0  0  0  0  0  0  0  0  0  0  0  0
   -1.5810   -2.3761    3.1344 H   0  0  0  0  0  0  0  0  0  0  0  0
    0.0922   -1.7524    4.6202 H   0  0  0  0  0  0  0  0  0  0  0  0
    0.2788    0.0005    4.8093 H   0  0  0  0  0  0  0  0  0  0  0  0
    1.4743   -0.9321    3.8737 H   0  0  0  0  0  0  0  0  0  0  0  0
   -3.6257   -2.7571    1.8985 H   0  0  0  0  0  0  0  0  0  0  0  0
   -3.9768   -1.9038    0.3814 H   0  0  0  0  0  0  0  0  0  0  0  0
   -2.4877   -3.1607   -0.7589 H   0  0  0  0  0  0  0  0  0  0  0  0
   -1.4976   -3.3980    0.5681 H   0  0  0  0  0  0  0  0  0  0  0  0
   -2.5022    0.1389   -2.7000 H   0  0  0  0  0  0  0  0  0  0  0  0
   -0.9915    0.3973   -1.8340 H   0  0  0  0  0  0  0  0  0  0  0  0
   -3.9800    1.9679   -0.2932 H   0  0  0  0  0  0  0  0  0  0  0  0
   -2.9168    5.8319   -1.8320 H   0  0  0  0  0  0  0  0  0  0  0  0
   -0.8579    2.4762   -3.2129 H   0  0  0  0  0  0  0  0  0  0  0  0
   -2.4002   -5.4748   -0.1544 H   0  0  0  0  0  0  0  0  0  0  0  0
   -5.1480   -4.3541    0.5041 H   0  0  0  0  0  0  0  0  0  0  0  0
   -4.7427   -5.9238   -0.2112 H   0  0  0  0  0  0  0  0  0  0  0  0
   -5.3154   -4.4071   -1.8677 H   0  0  0  0  0  0  0  0  0  0  0  0
  1  2  2  0
  1  6  1  0
  2  3  1  0
  3  4  2  0
  4  5  1  0
  4  7  1  0
  5  6  2  0
  7  8  2  0
  7 12  1  0
  8  9  1  0
  9 10  2  0
 10 11  1  0
 11 12  2  0
 11 14  1  0
 12 13  1  0
 14 15  1  0
 15 16  1  0
 16 17  2  0
 16 21  1  0
 17 18  1  0
 18 19  2  0
 18 25  1  0
 19 20  1  0
 19 23  1  0
 20 21  2  0
 21 22  1  0
 23 24  1  0
 24 33  1  0
 25 26  1  0
 26 27  1  0
 27 28  2  0
 27 32  1  0
 28 29  1  0
 29 30  2  0
 29 39  1  0
 30 31  1  0
 31 32  2  0
 33 34  1  0
 33 37  1  0
 34 35  1  0
 34 36  2  0
 37 38  1  0
 39 40  3  0
  1 41  1  0
  2 42  1  0
  3 43  1  0
  5 44  1  0
  6 45  1  0
  8 46  1  0
  9 47  1  0
 10 48  1  0
 13 49  1  0
 13 50  1  0
 13 51  1  0
 14 52  1  0
 14 53  1  0
 15 54  1  0
 17 55  1  0
 20 56  1  0
 22 57  1  0
 22 58  1  0
 22 59  1  0
 23 60  1  0
 23 61  1  0
 24 62  1  0
 24 63  1  0
 26 64  1  0
 26 65  1  0
 28 66  1  0
 30 67  1  0
 32 68  1  0
 33 69  1  6
 37 70  1  0
 37 71  1  0
 38 72  1  0
M  CHG  2  24   1  35  -1
M  END
>  <%C>  (1) 
98.790520000000001

>  <mol_id>  (1) 
4

>  <isomer_id>  (1) 
1

>  <CID>  (1) 
10

>  <Energy>  (1) 
87.06028951720414

$$$$
