PD1-PDL1.sdf
     RDKit          3D

 72 75  0  0  0  0  0  0  0  0999 V2000
    9.3616    1.6507    1.0098 C   0  0  0  0  0  0  0  0  0  0  0  0
    8.6898    2.7523    0.4691 C   0  0  0  0  0  0  0  0  0  0  0  0
    7.5215    2.5614   -0.2777 C   0  0  0  0  0  0  0  0  0  0  0  0
    7.0188    1.2706   -0.4893 C   0  0  0  0  0  0  0  0  0  0  0  0
    7.6994    0.1712    0.0513 C   0  0  0  0  0  0  0  0  0  0  0  0
    8.8662    0.3594    0.8007 C   0  0  0  0  0  0  0  0  0  0  0  0
    5.7958    1.0712   -1.2707 C   0  0  0  0  0  0  0  0  0  0  0  0
    5.9357    0.8472   -2.6453 C   0  0  0  0  0  0  0  0  0  0  0  0
    4.8174    0.6537   -3.4530 C   0  0  0  0  0  0  0  0  0  0  0  0
    3.5439    0.6893   -2.8897 C   0  0  0  0  0  0  0  0  0  0  0  0
    3.3708    0.9216   -1.5165 C   0  0  0  0  0  0  0  0  0  0  0  0
    4.5059    1.1033   -0.6865 C   0  0  0  0  0  0  0  0  0  0  0  0
    4.3318    1.3448    0.8032 C   0  0  0  0  0  0  0  0  0  0  0  0
    1.9623    0.9521   -0.9747 C   0  0  0  0  0  0  0  0  0  0  0  0
    1.6618   -0.3938   -0.4687 N   0  0  0  0  0  0  0  0  0  0  0  0
    0.4414   -0.8202    0.0552 C   0  0  0  0  0  0  0  0  0  0  0  0
   -0.6303    0.0660    0.2031 C   0  0  0  0  0  0  0  0  0  0  0  0
   -1.8608   -0.3597    0.7266 C   0  0  0  0  0  0  0  0  0  0  0  0
   -2.0069   -1.7006    1.1104 C   0  0  0  0  0  0  0  0  0  0  0  0
   -0.9364   -2.5911    0.9689 C   0  0  0  0  0  0  0  0  0  0  0  0
    0.2902   -2.1626    0.4437 C   0  0  0  0  0  0  0  0  0  0  0  0
    1.4260   -3.1493    0.3000 C   0  0  0  0  0  0  0  0  0  0  0  0
   -3.3183   -2.1872    1.6522 C   0  0  0  0  0  0  0  0  0  0  0  0
   -4.2441   -2.1750    0.5184 N   0  0  0  0  0  4  0  0  0  0  0  0
   -2.9535    0.4583    0.8969 O   0  0  0  0  0  0  0  0  0  0  0  0
   -3.0254    1.6754    0.1451 C   0  0  0  0  0  0  0  0  0  0  0  0
   -4.3746    2.2845    0.3989 C   0  0  0  0  0  0  0  0  0  0  0  0
   -5.3957    2.2219   -0.5546 C   0  0  0  0  0  0  0  0  0  0  0  0
   -6.6228    2.8115   -0.2525 C   0  0  0  0  0  0  0  0  0  0  0  0
   -6.7947    3.4194    0.9929 C   0  0  0  0  0  0  0  0  0  0  0  0
   -5.8177    3.4738    1.9163 N   0  0  0  0  0  0  0  0  0  0  0  0
   -4.6350    2.9098    1.6244 C   0  0  0  0  0  0  0  0  0  0  0  0
   -5.6519   -2.5772    0.8095 C   0  0  1  0  0  0  0  0  0  0  0  0
   -6.5862   -1.9966   -0.2798 C   0  0  0  0  0  0  0  0  0  0  0  0
   -6.3105   -0.8153   -0.6058 O   0  0  0  0  0  1  0  0  0  0  0  0
   -7.3305   -2.7704   -0.9316 O   0  0  0  0  0  0  0  0  0  0  0  0
   -5.7398   -4.1055    0.8751 C   0  0  0  0  0  0  0  0  0  0  0  0
   -5.3784   -4.6146   -0.4080 O   0  0  0  0  0  0  0  0  0  0  0  0
   -7.6980    2.8089   -1.1938 C   0  0  0  0  0  0  0  0  0  0  0  0
   -8.5752    2.8466   -1.9594 N   0  0  0  0  0  0  0  0  0  0  0  0
   10.2677    1.7982    1.5905 H   0  0  0  0  0  0  0  0  0  0  0  0
    9.0747    3.7555    0.6273 H   0  0  0  0  0  0  0  0  0  0  0  0
    7.0006    3.4164   -0.6981 H   0  0  0  0  0  0  0  0  0  0  0  0
    7.3153   -0.8314   -0.1110 H   0  0  0  0  0  0  0  0  0  0  0  0
    9.3873   -0.4970    1.2187 H   0  0  0  0  0  0  0  0  0  0  0  0
    6.9279    0.8257   -3.0868 H   0  0  0  0  0  0  0  0  0  0  0  0
    4.9381    0.4788   -4.5182 H   0  0  0  0  0  0  0  0  0  0  0  0
    2.6805    0.5351   -3.5312 H   0  0  0  0  0  0  0  0  0  0  0  0
    4.0281    2.3811    0.9776 H   0  0  0  0  0  0  0  0  0  0  0  0
    3.5692    0.6798    1.2178 H   0  0  0  0  0  0  0  0  0  0  0  0
    5.2524    1.1604    1.3626 H   0  0  0  0  0  0  0  0  0  0  0  0
    1.8700    1.7005   -0.1807 H   0  0  0  0  0  0  0  0  0  0  0  0
    1.2607    1.2251   -1.7706 H   0  0  0  0  0  0  0  0  0  0  0  0
    2.4016   -1.0878   -0.5632 H   0  0  0  0  0  0  0  0  0  0  0  0
   -0.4934    1.0980   -0.0856 H   0  0  0  0  0  0  0  0  0  0  0  0
   -1.0593   -3.6289    1.2668 H   0  0  0  0  0  0  0  0  0  0  0  0
    1.7039   -3.2510   -0.7535 H   0  0  0  0  0  0  0  0  0  0  0  0
    1.1444   -4.1375    0.6760 H   0  0  0  0  0  0  0  0  0  0  0  0
    2.2994   -2.8066    0.8634 H   0  0  0  0  0  0  0  0  0  0  0  0
   -3.6664   -1.5171    2.4482 H   0  0  0  0  0  0  0  0  0  0  0  0
   -3.2168   -3.1945    2.0722 H   0  0  0  0  0  0  0  0  0  0  0  0
   -3.8858   -2.7866   -0.2186 H   0  0  0  0  0  0  0  0  0  0  0  0
   -4.2801   -1.2148    0.1408 H   0  0  0  0  0  0  0  0  0  0  0  0
   -2.2448    2.3747    0.4630 H   0  0  0  0  0  0  0  0  0  0  0  0
   -2.8916    1.4750   -0.9240 H   0  0  0  0  0  0  0  0  0  0  0  0
   -5.2563    1.7100   -1.5052 H   0  0  0  0  0  0  0  0  0  0  0  0
   -7.7524    3.8738    1.2305 H   0  0  0  0  0  0  0  0  0  0  0  0
   -3.8482    2.9460    2.3721 H   0  0  0  0  0  0  0  0  0  0  0  0
   -5.9790   -2.1563    1.7642 H   0  0  0  0  0  0  0  0  0  0  0  0
   -5.0631   -4.4974    1.6405 H   0  0  0  0  0  0  0  0  0  0  0  0
   -6.7564   -4.4199    1.1353 H   0  0  0  0  0  0  0  0  0  0  0  0
   -6.0820   -4.3132   -1.0349 H   0  0  0  0  0  0  0  0  0  0  0  0
  1  2  2  0
  1  6  1  0
  2  3  1  0
  3  4  2  0
  4  5  1  0
  4  7  1  0
  5  6  2  0
  7  8  2  0
  7 12  1  0
  8  9  1  0
  9 10  2  0
 10 11  1  0
 11 12  2  0
 11 14  1  0
 12 13  1  0
 14 15  1  0
 15 16  1  0
 16 17  2  0
 16 21  1  0
 17 18  1  0
 18 19  2  0
 18 25  1  0
 19 20  1  0
 19 23  1  0
 20 21  2  0
 21 22  1  0
 23 24  1  0
 24 33  1  0
 25 26  1  0
 26 27  1  0
 27 28  2  0
 27 32  1  0
 28 29  1  0
 29 30  2  0
 29 39  1  0
 30 31  1  0
 31 32  2  0
 33 34  1  0
 33 37  1  0
 34 35  1  0
 34 36  2  0
 37 38  1  0
 39 40  3  0
  1 41  1  0
  2 42  1  0
  3 43  1  0
  5 44  1  0
  6 45  1  0
  8 46  1  0
  9 47  1  0
 10 48  1  0
 13 49  1  0
 13 50  1  0
 13 51  1  0
 14 52  1  0
 14 53  1  0
 15 54  1  0
 17 55  1  0
 20 56  1  0
 22 57  1  0
 22 58  1  0
 22 59  1  0
 23 60  1  0
 23 61  1  0
 24 62  1  0
 24 63  1  0
 26 64  1  0
 26 65  1  0
 28 66  1  0
 30 67  1  0
 32 68  1  0
 33 69  1  1
 37 70  1  0
 37 71  1  0
 38 72  1  0
M  CHG  2  24   1  35  -1
M  END
>  <%C>  (1) 
98.790520000000001

>  <mol_id>  (1) 
4

>  <isomer_id>  (1) 
1

>  <CID>  (1) 
10

>  <Energy>  (1) 
87.06028951720414

$$$$
