PD1-PDL1.sdf
     RDKit          3D

 72 75  0  0  0  0  0  0  0  0999 V2000
    8.8157    0.8362    1.2851 C   0  0  0  0  0  0  0  0  0  0  0  0
    7.7295    0.0162    1.6053 C   0  0  0  0  0  0  0  0  0  0  0  0
    6.4688    0.2809    1.0591 C   0  0  0  0  0  0  0  0  0  0  0  0
    6.2811    1.3632    0.1853 C   0  0  0  0  0  0  0  0  0  0  0  0
    7.3760    2.1860   -0.1205 C   0  0  0  0  0  0  0  0  0  0  0  0
    8.6384    1.9224    0.4229 C   0  0  0  0  0  0  0  0  0  0  0  0
    4.9532    1.6524   -0.3793 C   0  0  0  0  0  0  0  0  0  0  0  0
    4.3812    2.8959   -0.0789 C   0  0  0  0  0  0  0  0  0  0  0  0
    3.1120    3.2302   -0.5423 C   0  0  0  0  0  0  0  0  0  0  0  0
    2.3975    2.3197   -1.3150 C   0  0  0  0  0  0  0  0  0  0  0  0
    2.9416    1.0691   -1.6474 C   0  0  0  0  0  0  0  0  0  0  0  0
    4.2422    0.7281   -1.1883 C   0  0  0  0  0  0  0  0  0  0  0  0
    4.8749   -0.6038   -1.5569 C   0  0  0  0  0  0  0  0  0  0  0  0
    2.0972    0.1340   -2.4868 C   0  0  0  0  0  0  0  0  0  0  0  0
    1.7110   -1.0420   -1.6853 N   0  0  0  0  0  0  0  0  0  0  0  0
    0.6587   -1.0920   -0.7665 C   0  0  0  0  0  0  0  0  0  0  0  0
   -0.3186   -0.0930   -0.6997 C   0  0  0  0  0  0  0  0  0  0  0  0
   -1.3771   -0.1699    0.2108 C   0  0  0  0  0  0  0  0  0  0  0  0
   -1.4562   -1.2634    1.0790 C   0  0  0  0  0  0  0  0  0  0  0  0
   -0.4751   -2.2609    1.0329 C   0  0  0  0  0  0  0  0  0  0  0  0
    0.5816   -2.1869    0.1149 C   0  0  0  0  0  0  0  0  0  0  0  0
    1.6163   -3.2876    0.0879 C   0  0  0  0  0  0  0  0  0  0  0  0
   -2.6211   -1.3798    2.0125 C   0  0  0  0  0  0  0  0  0  0  0  0
   -3.5598   -2.2957    1.3587 N   0  0  0  0  0  4  0  0  0  0  0  0
   -2.3382    0.8041    0.2933 O   0  0  0  0  0  0  0  0  0  0  0  0
   -2.9513    1.1708   -0.9513 C   0  0  0  0  0  0  0  0  0  0  0  0
   -4.2255    1.9201   -0.6709 C   0  0  0  0  0  0  0  0  0  0  0  0
   -5.3959    1.6256   -1.3760 C   0  0  0  0  0  0  0  0  0  0  0  0
   -6.5482    2.3548   -1.0887 C   0  0  0  0  0  0  0  0  0  0  0  0
   -6.4969    3.3369   -0.0981 C   0  0  0  0  0  0  0  0  0  0  0  0
   -5.3726    3.6299    0.5811 N   0  0  0  0  0  0  0  0  0  0  0  0
   -4.2613    2.9282    0.3012 C   0  0  0  0  0  0  0  0  0  0  0  0
   -4.9945   -1.9344    1.5446 C   0  0  1  0  0  0  0  0  0  0  0  0
   -5.6207   -1.3795    0.2527 C   0  0  0  0  0  0  0  0  0  0  0  0
   -6.7365   -0.8193    0.3092 O   0  0  0  0  0  1  0  0  0  0  0  0
   -4.9383   -1.5530   -0.7934 O   0  0  0  0  0  0  0  0  0  0  0  0
   -5.7768   -3.1864    1.9391 C   0  0  0  0  0  0  0  0  0  0  0  0
   -4.9799   -3.9889    2.8254 O   0  0  0  0  0  0  0  0  0  0  0  0
   -7.7690    2.1173   -1.7925 C   0  0  0  0  0  0  0  0  0  0  0  0
   -8.7627    1.9651   -2.3819 N   0  0  0  0  0  0  0  0  0  0  0  0
    9.7949    0.6329    1.7087 H   0  0  0  0  0  0  0  0  0  0  0  0
    7.8628   -0.8229    2.2815 H   0  0  0  0  0  0  0  0  0  0  0  0
    5.6246   -0.3494    1.3211 H   0  0  0  0  0  0  0  0  0  0  0  0
    7.2454    3.0289   -0.7928 H   0  0  0  0  0  0  0  0  0  0  0  0
    9.4806    2.5616    0.1749 H   0  0  0  0  0  0  0  0  0  0  0  0
    4.9240    3.6028    0.5418 H   0  0  0  0  0  0  0  0  0  0  0  0
    2.6755    4.1929   -0.2923 H   0  0  0  0  0  0  0  0  0  0  0  0
    1.4037    2.5952   -1.6547 H   0  0  0  0  0  0  0  0  0  0  0  0
    5.9623   -0.5155   -1.6352 H   0  0  0  0  0  0  0  0  0  0  0  0
    4.6391   -1.3508   -0.7940 H   0  0  0  0  0  0  0  0  0  0  0  0
    4.5222   -0.9690   -2.5232 H   0  0  0  0  0  0  0  0  0  0  0  0
    2.6624   -0.1854   -3.3675 H   0  0  0  0  0  0  0  0  0  0  0  0
    1.2146    0.6474   -2.8796 H   0  0  0  0  0  0  0  0  0  0  0  0
    2.4398   -1.7357   -1.5426 H   0  0  0  0  0  0  0  0  0  0  0  0
   -0.2636    0.7675   -1.3491 H   0  0  0  0  0  0  0  0  0  0  0  0
   -0.5391   -3.1075    1.7099 H   0  0  0  0  0  0  0  0  0  0  0  0
    1.6658   -3.7358   -0.9092 H   0  0  0  0  0  0  0  0  0  0  0  0
    2.6003   -2.8844    0.3450 H   0  0  0  0  0  0  0  0  0  0  0  0
    1.3731   -4.0783    0.8040 H   0  0  0  0  0  0  0  0  0  0  0  0
   -2.3039   -1.7556    2.9919 H   0  0  0  0  0  0  0  0  0  0  0  0
   -3.0776   -0.3931    2.1620 H   0  0  0  0  0  0  0  0  0  0  0  0
   -3.3858   -2.2682    0.3417 H   0  0  0  0  0  0  0  0  0  0  0  0
   -3.4266   -3.2478    1.7036 H   0  0  0  0  0  0  0  0  0  0  0  0
   -3.1659    0.2755   -1.5471 H   0  0  0  0  0  0  0  0  0  0  0  0
   -2.2814    1.8102   -1.5343 H   0  0  0  0  0  0  0  0  0  0  0  0
   -5.4222    0.8271   -2.1162 H   0  0  0  0  0  0  0  0  0  0  0  0
   -7.3964    3.9023    0.1281 H   0  0  0  0  0  0  0  0  0  0  0  0
   -3.3553    3.1611    0.8530 H   0  0  0  0  0  0  0  0  0  0  0  0
   -5.1078   -1.1768    2.3245 H   0  0  0  0  0  0  0  0  0  0  0  0
   -6.7155   -2.8939    2.4217 H   0  0  0  0  0  0  0  0  0  0  0  0
   -6.0241   -3.7772    1.0495 H   0  0  0  0  0  0  0  0  0  0  0  0
   -5.5259   -4.7084    3.1934 H   0  0  0  0  0  0  0  0  0  0  0  0
  1  2  2  0
  1  6  1  0
  2  3  1  0
  3  4  2  0
  4  5  1  0
  4  7  1  0
  5  6  2  0
  7  8  2  0
  7 12  1  0
  8  9  1  0
  9 10  2  0
 10 11  1  0
 11 12  2  0
 11 14  1  0
 12 13  1  0
 14 15  1  0
 15 16  1  0
 16 17  2  0
 16 21  1  0
 17 18  1  0
 18 19  2  0
 18 25  1  0
 19 20  1  0
 19 23  1  0
 20 21  2  0
 21 22  1  0
 23 24  1  0
 24 33  1  0
 25 26  1  0
 26 27  1  0
 27 28  2  0
 27 32  1  0
 28 29  1  0
 29 30  2  0
 29 39  1  0
 30 31  1  0
 31 32  2  0
 33 34  1  0
 33 37  1  0
 34 35  1  0
 34 36  2  0
 37 38  1  0
 39 40  3  0
  1 41  1  0
  2 42  1  0
  3 43  1  0
  5 44  1  0
  6 45  1  0
  8 46  1  0
  9 47  1  0
 10 48  1  0
 13 49  1  0
 13 50  1  0
 13 51  1  0
 14 52  1  0
 14 53  1  0
 15 54  1  0
 17 55  1  0
 20 56  1  0
 22 57  1  0
 22 58  1  0
 22 59  1  0
 23 60  1  0
 23 61  1  0
 24 62  1  0
 24 63  1  0
 26 64  1  0
 26 65  1  0
 28 66  1  0
 30 67  1  0
 32 68  1  0
 33 69  1  1
 37 70  1  0
 37 71  1  0
 38 72  1  0
M  CHG  2  24   1  35  -1
M  END
>  <%C>  (1) 
98.790520000000001

>  <mol_id>  (1) 
4

>  <isomer_id>  (1) 
1

>  <CID>  (1) 
10

>  <Energy>  (1) 
87.06028951720414

$$$$
