PD1-PDL1.sdf
     RDKit          3D

 72 75  0  0  0  0  0  0  0  0999 V2000
    8.9956   -0.0781    1.3131 C   0  0  0  0  0  0  0  0  0  0  0  0
    7.8139    0.0817    2.0428 C   0  0  0  0  0  0  0  0  0  0  0  0
    6.5794    0.0793    1.3841 C   0  0  0  0  0  0  0  0  0  0  0  0
    6.5109   -0.0751   -0.0102 C   0  0  0  0  0  0  0  0  0  0  0  0
    7.7042   -0.2465   -0.7295 C   0  0  0  0  0  0  0  0  0  0  0  0
    8.9402   -0.2457   -0.0738 C   0  0  0  0  0  0  0  0  0  0  0  0
    5.2130   -0.0993   -0.7083 C   0  0  0  0  0  0  0  0  0  0  0  0
    4.9225   -1.2318   -1.4802 C   0  0  0  0  0  0  0  0  0  0  0  0
    3.7049   -1.3546   -2.1405 C   0  0  0  0  0  0  0  0  0  0  0  0
    2.7533   -0.3459   -2.0289 C   0  0  0  0  0  0  0  0  0  0  0  0
    3.0027    0.8107   -1.2654 C   0  0  0  0  0  0  0  0  0  0  0  0
    4.2602    0.9504   -0.6192 C   0  0  0  0  0  0  0  0  0  0  0  0
    4.5850    2.2212    0.1480 C   0  0  0  0  0  0  0  0  0  0  0  0
    1.9376    1.8917   -1.1417 C   0  0  0  0  0  0  0  0  0  0  0  0
    0.5876    1.4404   -1.5314 N   0  0  0  0  0  0  0  0  0  0  0  0
   -0.4151    0.8508   -0.7492 C   0  0  0  0  0  0  0  0  0  0  0  0
   -1.6194    0.6994   -1.4407 C   0  0  0  0  0  0  0  0  0  0  0  0
   -2.7520    0.1368   -0.8462 C   0  0  0  0  0  0  0  0  0  0  0  0
   -2.6750   -0.3071    0.4745 C   0  0  0  0  0  0  0  0  0  0  0  0
   -1.4763   -0.1752    1.1805 C   0  0  0  0  0  0  0  0  0  0  0  0
   -0.3344    0.3944    0.5936 C   0  0  0  0  0  0  0  0  0  0  0  0
    0.9120    0.4419    1.4480 C   0  0  0  0  0  0  0  0  0  0  0  0
   -3.8651   -0.9408    1.1324 C   0  0  0  0  0  0  0  0  0  0  0  0
   -3.9982   -2.2999    0.5951 N   0  0  0  0  0  4  0  0  0  0  0  0
   -3.9319   -0.0219   -1.5310 O   0  0  0  0  0  0  0  0  0  0  0  0
   -4.4947    1.1694   -2.1034 C   0  0  0  0  0  0  0  0  0  0  0  0
   -5.1015    2.0120   -1.0115 C   0  0  0  0  0  0  0  0  0  0  0  0
   -6.4204    1.8087   -0.5980 C   0  0  0  0  0  0  0  0  0  0  0  0
   -6.9279    2.6133    0.4216 C   0  0  0  0  0  0  0  0  0  0  0  0
   -6.1049    3.5877    0.9928 C   0  0  0  0  0  0  0  0  0  0  0  0
   -4.8344    3.7803    0.5981 N   0  0  0  0  0  0  0  0  0  0  0  0
   -4.3398    3.0061   -0.3806 C   0  0  0  0  0  0  0  0  0  0  0  0
   -3.0221   -3.2707    1.1771 C   0  0  1  0  0  0  0  0  0  0  0  0
   -3.5214   -3.9073    2.4838 C   0  0  0  0  0  0  0  0  0  0  0  0
   -2.6871   -4.4039    3.2713 O   0  0  0  0  0  1  0  0  0  0  0  0
   -4.7631   -3.8330    2.6770 O   0  0  0  0  0  0  0  0  0  0  0  0
   -2.7723   -4.3923    0.1720 C   0  0  0  0  0  0  0  0  0  0  0  0
   -2.6824   -3.8307   -1.1464 O   0  0  0  0  0  0  0  0  0  0  0  0
   -8.2706    2.4557    0.8833 C   0  0  0  0  0  0  0  0  0  0  0  0
   -9.3659    2.3268    1.2561 N   0  0  0  0  0  0  0  0  0  0  0  0
    9.9544   -0.0772    1.8235 H   0  0  0  0  0  0  0  0  0  0  0  0
    7.8528    0.2015    3.1216 H   0  0  0  0  0  0  0  0  0  0  0  0
    5.6651    0.1875    1.9594 H   0  0  0  0  0  0  0  0  0  0  0  0
    7.6706   -0.3727   -1.8074 H   0  0  0  0  0  0  0  0  0  0  0  0
    9.8560   -0.3758   -0.6429 H   0  0  0  0  0  0  0  0  0  0  0  0
    5.6471   -2.0376   -1.5515 H   0  0  0  0  0  0  0  0  0  0  0  0
    3.4909   -2.2429   -2.7274 H   0  0  0  0  0  0  0  0  0  0  0  0
    1.8069   -0.4846   -2.5412 H   0  0  0  0  0  0  0  0  0  0  0  0
    4.1359    3.0977   -0.3257 H   0  0  0  0  0  0  0  0  0  0  0  0
    5.6626    2.4046    0.1812 H   0  0  0  0  0  0  0  0  0  0  0  0
    4.2110    2.1446    1.1731 H   0  0  0  0  0  0  0  0  0  0  0  0
    2.2221    2.7221   -1.7964 H   0  0  0  0  0  0  0  0  0  0  0  0
    1.9135    2.2996   -0.1297 H   0  0  0  0  0  0  0  0  0  0  0  0
    0.3634    1.5427   -2.5178 H   0  0  0  0  0  0  0  0  0  0  0  0
   -1.6732    1.0114   -2.4757 H   0  0  0  0  0  0  0  0  0  0  0  0
   -1.4319   -0.5402    2.2036 H   0  0  0  0  0  0  0  0  0  0  0  0
    1.1525    1.4731    1.7184 H   0  0  0  0  0  0  0  0  0  0  0  0
    0.7759   -0.1199    2.3771 H   0  0  0  0  0  0  0  0  0  0  0  0
    1.7561   -0.0081    0.9219 H   0  0  0  0  0  0  0  0  0  0  0  0
   -3.7379   -0.9667    2.2219 H   0  0  0  0  0  0  0  0  0  0  0  0
   -4.7607   -0.3467    0.9143 H   0  0  0  0  0  0  0  0  0  0  0  0
   -3.8630   -2.2791   -0.4214 H   0  0  0  0  0  0  0  0  0  0  0  0
   -4.9356   -2.6556    0.8168 H   0  0  0  0  0  0  0  0  0  0  0  0
   -3.7516    1.7472   -2.6620 H   0  0  0  0  0  0  0  0  0  0  0  0
   -5.2704    0.8815   -2.8206 H   0  0  0  0  0  0  0  0  0  0  0  0
   -7.0411    1.0407   -1.0556 H   0  0  0  0  0  0  0  0  0  0  0  0
   -6.5014    4.2177    1.7841 H   0  0  0  0  0  0  0  0  0  0  0  0
   -3.3110    3.1618   -0.6925 H   0  0  0  0  0  0  0  0  0  0  0  0
   -2.0717   -2.7756    1.3910 H   0  0  0  0  0  0  0  0  0  0  0  0
   -1.8458   -4.9168    0.4297 H   0  0  0  0  0  0  0  0  0  0  0  0
   -3.5920   -5.1190    0.1998 H   0  0  0  0  0  0  0  0  0  0  0  0
   -2.3963   -4.5144   -1.7787 H   0  0  0  0  0  0  0  0  0  0  0  0
  1  2  2  0
  1  6  1  0
  2  3  1  0
  3  4  2  0
  4  5  1  0
  4  7  1  0
  5  6  2  0
  7  8  2  0
  7 12  1  0
  8  9  1  0
  9 10  2  0
 10 11  1  0
 11 12  2  0
 11 14  1  0
 12 13  1  0
 14 15  1  0
 15 16  1  0
 16 17  2  0
 16 21  1  0
 17 18  1  0
 18 19  2  0
 18 25  1  0
 19 20  1  0
 19 23  1  0
 20 21  2  0
 21 22  1  0
 23 24  1  0
 24 33  1  0
 25 26  1  0
 26 27  1  0
 27 28  2  0
 27 32  1  0
 28 29  1  0
 29 30  2  0
 29 39  1  0
 30 31  1  0
 31 32  2  0
 33 34  1  0
 33 37  1  0
 34 35  1  0
 34 36  2  0
 37 38  1  0
 39 40  3  0
  1 41  1  0
  2 42  1  0
  3 43  1  0
  5 44  1  0
  6 45  1  0
  8 46  1  0
  9 47  1  0
 10 48  1  0
 13 49  1  0
 13 50  1  0
 13 51  1  0
 14 52  1  0
 14 53  1  0
 15 54  1  0
 17 55  1  0
 20 56  1  0
 22 57  1  0
 22 58  1  0
 22 59  1  0
 23 60  1  0
 23 61  1  0
 24 62  1  0
 24 63  1  0
 26 64  1  0
 26 65  1  0
 28 66  1  0
 30 67  1  0
 32 68  1  0
 33 69  1  1
 37 70  1  0
 37 71  1  0
 38 72  1  0
M  CHG  2  24   1  35  -1
M  END
>  <%C>  (1) 
98.790520000000001

>  <mol_id>  (1) 
4

>  <isomer_id>  (1) 
1

>  <CID>  (1) 
10

>  <Energy>  (1) 
87.06028951720414

$$$$
