PD1-PDL1.sdf
     RDKit          3D

 72 75  0  0  0  0  0  0  0  0999 V2000
    9.3870    0.0044    1.3901 C   0  0  0  0  0  0  0  0  0  0  0  0
    9.4015    0.5242    0.0923 C   0  0  0  0  0  0  0  0  0  0  0  0
    8.2142    0.6028   -0.6443 C   0  0  0  0  0  0  0  0  0  0  0  0
    6.9990    0.1712   -0.0906 C   0  0  0  0  0  0  0  0  0  0  0  0
    6.9989   -0.3594    1.2100 C   0  0  0  0  0  0  0  0  0  0  0  0
    8.1850   -0.4405    1.9483 C   0  0  0  0  0  0  0  0  0  0  0  0
    5.7541    0.2499   -0.8745 C   0  0  0  0  0  0  0  0  0  0  0  0
    5.7208   -0.4244   -2.1019 C   0  0  0  0  0  0  0  0  0  0  0  0
    4.5709   -0.4277   -2.8858 C   0  0  0  0  0  0  0  0  0  0  0  0
    3.4301    0.2353   -2.4427 C   0  0  0  0  0  0  0  0  0  0  0  0
    3.4183    0.9183   -1.2129 C   0  0  0  0  0  0  0  0  0  0  0  0
    4.6054    0.9582   -0.4342 C   0  0  0  0  0  0  0  0  0  0  0  0
    4.6476    1.7739    0.8467 C   0  0  0  0  0  0  0  0  0  0  0  0
    2.1495    1.6126   -0.7444 C   0  0  0  0  0  0  0  0  0  0  0  0
    0.9154    1.0259   -1.3062 N   0  0  0  0  0  0  0  0  0  0  0  0
   -0.0268    0.4342   -0.4665 C   0  0  0  0  0  0  0  0  0  0  0  0
   -1.3039    0.9945   -0.4680 C   0  0  0  0  0  0  0  0  0  0  0  0
   -2.3245    0.4915    0.3564 C   0  0  0  0  0  0  0  0  0  0  0  0
   -2.0353   -0.5909    1.1988 C   0  0  0  0  0  0  0  0  0  0  0  0
   -0.7627   -1.1726    1.1848 C   0  0  0  0  0  0  0  0  0  0  0  0
    0.2480   -0.6799    0.3514 C   0  0  0  0  0  0  0  0  0  0  0  0
    1.5807   -1.3905    0.3349 C   0  0  0  0  0  0  0  0  0  0  0  0
   -3.0905   -1.1665    2.1002 C   0  0  0  0  0  0  0  0  0  0  0  0
   -4.1380   -1.7779    1.2711 N   0  0  0  0  0  4  0  0  0  0  0  0
   -3.6060    0.9943    0.3953 O   0  0  0  0  0  0  0  0  0  0  0  0
   -4.0388    1.8351   -0.6797 C   0  0  0  0  0  0  0  0  0  0  0  0
   -5.5345    1.9356   -0.5906 C   0  0  0  0  0  0  0  0  0  0  0  0
   -6.1443    2.8107    0.3119 C   0  0  0  0  0  0  0  0  0  0  0  0
   -7.5377    2.8470    0.3612 C   0  0  0  0  0  0  0  0  0  0  0  0
   -8.2695    2.0065   -0.4829 C   0  0  0  0  0  0  0  0  0  0  0  0
   -7.6814    1.1600   -1.3473 N   0  0  0  0  0  0  0  0  0  0  0  0
   -6.3410    1.1252   -1.3982 C   0  0  0  0  0  0  0  0  0  0  0  0
   -3.6822   -2.9946    0.5301 C   0  0  1  0  0  0  0  0  0  0  0  0
   -3.6964   -4.2709    1.3883 C   0  0  0  0  0  0  0  0  0  0  0  0
   -4.3686   -4.2009    2.4501 O   0  0  0  0  0  1  0  0  0  0  0  0
   -3.0744   -5.2773    0.9835 O   0  0  0  0  0  0  0  0  0  0  0  0
   -4.6011   -3.2258   -0.6668 C   0  0  0  0  0  0  0  0  0  0  0  0
   -4.9080   -1.9694   -1.2939 O   0  0  0  0  0  0  0  0  0  0  0  0
   -8.2198    3.7234    1.2600 C   0  0  0  0  0  0  0  0  0  0  0  0
   -8.7750    4.4391    1.9916 N   0  0  0  0  0  0  0  0  0  0  0  0
   10.3082   -0.0557    1.9627 H   0  0  0  0  0  0  0  0  0  0  0  0
   10.3340    0.8685   -0.3447 H   0  0  0  0  0  0  0  0  0  0  0  0
    8.2333    1.0136   -1.6493 H   0  0  0  0  0  0  0  0  0  0  0  0
    6.0709   -0.7176    1.6452 H   0  0  0  0  0  0  0  0  0  0  0  0
    8.1717   -0.8518    2.9534 H   0  0  0  0  0  0  0  0  0  0  0  0
    6.5975   -0.9684   -2.4408 H   0  0  0  0  0  0  0  0  0  0  0  0
    4.5579   -0.9601   -3.8323 H   0  0  0  0  0  0  0  0  0  0  0  0
    2.5412    0.2006   -3.0650 H   0  0  0  0  0  0  0  0  0  0  0  0
    5.6680    2.0718    1.1020 H   0  0  0  0  0  0  0  0  0  0  0  0
    4.0719    2.6976    0.7432 H   0  0  0  0  0  0  0  0  0  0  0  0
    4.2355    1.1910    1.6755 H   0  0  0  0  0  0  0  0  0  0  0  0
    2.0878    1.5794    0.3484 H   0  0  0  0  0  0  0  0  0  0  0  0
    2.2067    2.6683   -1.0284 H   0  0  0  0  0  0  0  0  0  0  0  0
    0.5214    1.5427   -2.0883 H   0  0  0  0  0  0  0  0  0  0  0  0
   -1.4819    1.8462   -1.1107 H   0  0  0  0  0  0  0  0  0  0  0  0
   -0.5604   -2.0330    1.8182 H   0  0  0  0  0  0  0  0  0  0  0  0
    1.9383   -1.5032   -0.6927 H   0  0  0  0  0  0  0  0  0  0  0  0
    2.3203   -0.8267    0.9098 H   0  0  0  0  0  0  0  0  0  0  0  0
    1.4977   -2.3912    0.7700 H   0  0  0  0  0  0  0  0  0  0  0  0
   -2.6518   -1.9161    2.7710 H   0  0  0  0  0  0  0  0  0  0  0  0
   -3.5081   -0.3658    2.7218 H   0  0  0  0  0  0  0  0  0  0  0  0
   -4.9093   -2.0708    1.8806 H   0  0  0  0  0  0  0  0  0  0  0  0
   -4.4727   -1.0904    0.5886 H   0  0  0  0  0  0  0  0  0  0  0  0
   -3.7488    1.4117   -1.6484 H   0  0  0  0  0  0  0  0  0  0  0  0
   -3.5884    2.8298   -0.5924 H   0  0  0  0  0  0  0  0  0  0  0  0
   -5.5489    3.4441    0.9670 H   0  0  0  0  0  0  0  0  0  0  0  0
   -9.3548    2.0317   -0.4428 H   0  0  0  0  0  0  0  0  0  0  0  0
   -5.8690    0.4399   -2.0955 H   0  0  0  0  0  0  0  0  0  0  0  0
   -2.6602   -2.8551    0.1676 H   0  0  0  0  0  0  0  0  0  0  0  0
   -5.5323   -3.7023   -0.3396 H   0  0  0  0  0  0  0  0  0  0  0  0
   -4.1109   -3.8978   -1.3798 H   0  0  0  0  0  0  0  0  0  0  0  0
   -5.4309   -2.1354   -2.0997 H   0  0  0  0  0  0  0  0  0  0  0  0
  1  2  2  0
  1  6  1  0
  2  3  1  0
  3  4  2  0
  4  5  1  0
  4  7  1  0
  5  6  2  0
  7  8  2  0
  7 12  1  0
  8  9  1  0
  9 10  2  0
 10 11  1  0
 11 12  2  0
 11 14  1  0
 12 13  1  0
 14 15  1  0
 15 16  1  0
 16 17  2  0
 16 21  1  0
 17 18  1  0
 18 19  2  0
 18 25  1  0
 19 20  1  0
 19 23  1  0
 20 21  2  0
 21 22  1  0
 23 24  1  0
 24 33  1  0
 25 26  1  0
 26 27  1  0
 27 28  2  0
 27 32  1  0
 28 29  1  0
 29 30  2  0
 29 39  1  0
 30 31  1  0
 31 32  2  0
 33 34  1  0
 33 37  1  0
 34 35  1  0
 34 36  2  0
 37 38  1  0
 39 40  3  0
  1 41  1  0
  2 42  1  0
  3 43  1  0
  5 44  1  0
  6 45  1  0
  8 46  1  0
  9 47  1  0
 10 48  1  0
 13 49  1  0
 13 50  1  0
 13 51  1  0
 14 52  1  0
 14 53  1  0
 15 54  1  0
 17 55  1  0
 20 56  1  0
 22 57  1  0
 22 58  1  0
 22 59  1  0
 23 60  1  0
 23 61  1  0
 24 62  1  0
 24 63  1  0
 26 64  1  0
 26 65  1  0
 28 66  1  0
 30 67  1  0
 32 68  1  0
 33 69  1  6
 37 70  1  0
 37 71  1  0
 38 72  1  0
M  CHG  2  24   1  35  -1
M  END
>  <%C>  (1) 
98.790520000000001

>  <mol_id>  (1) 
4

>  <isomer_id>  (1) 
1

>  <CID>  (1) 
10

>  <Energy>  (1) 
87.06028951720414

$$$$
