PD1-PDL1.sdf
     RDKit          3D

 72 75  0  0  0  0  0  0  0  0999 V2000
    9.4404    0.5399   -1.1689 C   0  0  0  0  0  0  0  0  0  0  0  0
    8.4497   -0.4295   -1.3505 C   0  0  0  0  0  0  0  0  0  0  0  0
    7.1333   -0.1673   -0.9546 C   0  0  0  0  0  0  0  0  0  0  0  0
    6.7898    1.0671   -0.3795 C   0  0  0  0  0  0  0  0  0  0  0  0
    7.7967    2.0286   -0.1947 C   0  0  0  0  0  0  0  0  0  0  0  0
    9.1140    1.7692   -0.5891 C   0  0  0  0  0  0  0  0  0  0  0  0
    5.4101    1.3412    0.0625 C   0  0  0  0  0  0  0  0  0  0  0  0
    5.2295    1.7029    1.4041 C   0  0  0  0  0  0  0  0  0  0  0  0
    3.9599    1.9485    1.9149 C   0  0  0  0  0  0  0  0  0  0  0  0
    2.8471    1.8262    1.0893 C   0  0  0  0  0  0  0  0  0  0  0  0
    2.9802    1.4676   -0.2661 C   0  0  0  0  0  0  0  0  0  0  0  0
    4.2806    1.2461   -0.7944 C   0  0  0  0  0  0  0  0  0  0  0  0
    4.4581    0.9309   -2.2705 C   0  0  0  0  0  0  0  0  0  0  0  0
    1.7469    1.3322   -1.1494 C   0  0  0  0  0  0  0  0  0  0  0  0
    0.4761    1.3014   -0.3995 N   0  0  0  0  0  0  0  0  0  0  0  0
   -0.2468    0.2031    0.0860 C   0  0  0  0  0  0  0  0  0  0  0  0
   -1.5142    0.5547    0.5554 C   0  0  0  0  0  0  0  0  0  0  0  0
   -2.4054   -0.3882    1.0836 C   0  0  0  0  0  0  0  0  0  0  0  0
   -2.0126   -1.7333    1.1238 C   0  0  0  0  0  0  0  0  0  0  0  0
   -0.7418   -2.1006    0.6715 C   0  0  0  0  0  0  0  0  0  0  0  0
    0.1610   -1.1542    0.1612 C   0  0  0  0  0  0  0  0  0  0  0  0
    1.5228   -1.6659   -0.2492 C   0  0  0  0  0  0  0  0  0  0  0  0
   -2.9397   -2.7835    1.6704 C   0  0  0  0  0  0  0  0  0  0  0  0
   -4.1259   -2.7916    0.8137 N   0  0  0  0  0  4  0  0  0  0  0  0
   -3.6699   -0.1008    1.5471 O   0  0  0  0  0  0  0  0  0  0  0  0
   -4.1138    1.2511    1.7325 C   0  0  0  0  0  0  0  0  0  0  0  0
   -4.6415    1.8014    0.4325 C   0  0  0  0  0  0  0  0  0  0  0  0
   -4.1386    2.9853   -0.1145 C   0  0  0  0  0  0  0  0  0  0  0  0
   -4.6508    3.4245   -1.3341 C   0  0  0  0  0  0  0  0  0  0  0  0
   -5.6543    2.6781   -1.9568 C   0  0  0  0  0  0  0  0  0  0  0  0
   -6.1479    1.5473   -1.4262 N   0  0  0  0  0  0  0  0  0  0  0  0
   -5.6593    1.1172   -0.2493 C   0  0  0  0  0  0  0  0  0  0  0  0
   -5.2132   -3.7068    1.2663 C   0  0  1  0  0  0  0  0  0  0  0  0
   -6.3256   -2.9775    2.0414 C   0  0  0  0  0  0  0  0  0  0  0  0
   -7.0873   -3.6487    2.7710 O   0  0  0  0  0  1  0  0  0  0  0  0
   -6.3753   -1.7298    1.8788 O   0  0  0  0  0  0  0  0  0  0  0  0
   -5.8521   -4.3496    0.0366 C   0  0  0  0  0  0  0  0  0  0  0  0
   -4.8241   -4.6816   -0.9109 O   0  0  0  0  0  0  0  0  0  0  0  0
   -4.1581    4.6142   -1.9528 C   0  0  0  0  0  0  0  0  0  0  0  0
   -3.7453    5.5794   -2.4568 N   0  0  0  0  0  0  0  0  0  0  0  0
   10.4626    0.3375   -1.4749 H   0  0  0  0  0  0  0  0  0  0  0  0
    8.7027   -1.3878   -1.7943 H   0  0  0  0  0  0  0  0  0  0  0  0
    6.3725   -0.9305   -1.0839 H   0  0  0  0  0  0  0  0  0  0  0  0
    7.5512    2.9879    0.2509 H   0  0  0  0  0  0  0  0  0  0  0  0
    9.8826    2.5230   -0.4448 H   0  0  0  0  0  0  0  0  0  0  0  0
    6.0888    1.7772    2.0640 H   0  0  0  0  0  0  0  0  0  0  0  0
    3.8362    2.2239    2.9582 H   0  0  0  0  0  0  0  0  0  0  0  0
    1.8712    2.0111    1.5268 H   0  0  0  0  0  0  0  0  0  0  0  0
    5.4414    1.2461   -2.6306 H   0  0  0  0  0  0  0  0  0  0  0  0
    3.7212    1.4570   -2.8826 H   0  0  0  0  0  0  0  0  0  0  0  0
    4.3515   -0.1447   -2.4387 H   0  0  0  0  0  0  0  0  0  0  0  0
    1.8237    0.4511   -1.7892 H   0  0  0  0  0  0  0  0  0  0  0  0
    1.7200    2.1953   -1.8227 H   0  0  0  0  0  0  0  0  0  0  0  0
    0.0225    2.2039   -0.2807 H   0  0  0  0  0  0  0  0  0  0  0  0
   -1.8068    1.5925    0.4930 H   0  0  0  0  0  0  0  0  0  0  0  0
   -0.4455   -3.1445    0.7280 H   0  0  0  0  0  0  0  0  0  0  0  0
    1.6789   -2.6940    0.0914 H   0  0  0  0  0  0  0  0  0  0  0  0
    2.3107   -1.0561    0.1976 H   0  0  0  0  0  0  0  0  0  0  0  0
    1.6227   -1.6585   -1.3377 H   0  0  0  0  0  0  0  0  0  0  0  0
   -2.4546   -3.7663    1.6786 H   0  0  0  0  0  0  0  0  0  0  0  0
   -3.2154   -2.5310    2.7022 H   0  0  0  0  0  0  0  0  0  0  0  0
   -3.8679   -3.0433   -0.1429 H   0  0  0  0  0  0  0  0  0  0  0  0
   -4.5143   -1.8343    0.8212 H   0  0  0  0  0  0  0  0  0  0  0  0
   -3.3142    1.8774    2.1411 H   0  0  0  0  0  0  0  0  0  0  0  0
   -4.9235    1.2495    2.4708 H   0  0  0  0  0  0  0  0  0  0  0  0
   -3.3609    3.5530    0.3912 H   0  0  0  0  0  0  0  0  0  0  0  0
   -6.0540    3.0198   -2.9075 H   0  0  0  0  0  0  0  0  0  0  0  0
   -6.0637    0.2046    0.1778 H   0  0  0  0  0  0  0  0  0  0  0  0
   -4.8145   -4.4909    1.9151 H   0  0  0  0  0  0  0  0  0  0  0  0
   -6.4055   -5.2468    0.3344 H   0  0  0  0  0  0  0  0  0  0  0  0
   -6.5600   -3.6547   -0.4300 H   0  0  0  0  0  0  0  0  0  0  0  0
   -5.2120   -5.1764   -1.6563 H   0  0  0  0  0  0  0  0  0  0  0  0
  1  2  2  0
  1  6  1  0
  2  3  1  0
  3  4  2  0
  4  5  1  0
  4  7  1  0
  5  6  2  0
  7  8  2  0
  7 12  1  0
  8  9  1  0
  9 10  2  0
 10 11  1  0
 11 12  2  0
 11 14  1  0
 12 13  1  0
 14 15  1  0
 15 16  1  0
 16 17  2  0
 16 21  1  0
 17 18  1  0
 18 19  2  0
 18 25  1  0
 19 20  1  0
 19 23  1  0
 20 21  2  0
 21 22  1  0
 23 24  1  0
 24 33  1  0
 25 26  1  0
 26 27  1  0
 27 28  2  0
 27 32  1  0
 28 29  1  0
 29 30  2  0
 29 39  1  0
 30 31  1  0
 31 32  2  0
 33 34  1  0
 33 37  1  0
 34 35  1  0
 34 36  2  0
 37 38  1  0
 39 40  3  0
  1 41  1  0
  2 42  1  0
  3 43  1  0
  5 44  1  0
  6 45  1  0
  8 46  1  0
  9 47  1  0
 10 48  1  0
 13 49  1  0
 13 50  1  0
 13 51  1  0
 14 52  1  0
 14 53  1  0
 15 54  1  0
 17 55  1  0
 20 56  1  0
 22 57  1  0
 22 58  1  0
 22 59  1  0
 23 60  1  0
 23 61  1  0
 24 62  1  0
 24 63  1  0
 26 64  1  0
 26 65  1  0
 28 66  1  0
 30 67  1  0
 32 68  1  0
 33 69  1  1
 37 70  1  0
 37 71  1  0
 38 72  1  0
M  CHG  2  24   1  35  -1
M  END
>  <%C>  (1) 
98.790520000000001

>  <mol_id>  (1) 
4

>  <isomer_id>  (1) 
1

>  <CID>  (1) 
10

>  <Energy>  (1) 
87.06028951720414

$$$$
