PD1-PDL1.sdf
     RDKit          3D

 72 75  0  0  0  0  0  0  0  0999 V2000
    8.5064   -0.7452   -2.6165 C   0  0  0  0  0  0  0  0  0  0  0  0
    8.2923    0.5951   -2.9537 C   0  0  0  0  0  0  0  0  0  0  0  0
    7.3380    1.3470   -2.2593 C   0  0  0  0  0  0  0  0  0  0  0  0
    6.5836    0.7655   -1.2291 C   0  0  0  0  0  0  0  0  0  0  0  0
    6.8106   -0.5784   -0.8944 C   0  0  0  0  0  0  0  0  0  0  0  0
    7.7658   -1.3322   -1.5855 C   0  0  0  0  0  0  0  0  0  0  0  0
    5.5961    1.5658   -0.4912 C   0  0  0  0  0  0  0  0  0  0  0  0
    6.0833    2.6471    0.2550 C   0  0  0  0  0  0  0  0  0  0  0  0
    5.2255    3.4386    1.0134 C   0  0  0  0  0  0  0  0  0  0  0  0
    3.8622    3.1582    1.0307 C   0  0  0  0  0  0  0  0  0  0  0  0
    3.3359    2.0954    0.2807 C   0  0  0  0  0  0  0  0  0  0  0  0
    4.2042    1.2855   -0.4966 C   0  0  0  0  0  0  0  0  0  0  0  0
    3.6283    0.1522   -1.3299 C   0  0  0  0  0  0  0  0  0  0  0  0
    1.8456    1.8550    0.3484 C   0  0  0  0  0  0  0  0  0  0  0  0
    1.6103    0.7360    1.2710 N   0  0  0  0  0  0  0  0  0  0  0  0
    0.3973    0.0671    1.4354 C   0  0  0  0  0  0  0  0  0  0  0  0
   -0.7766    0.5551    0.8541 C   0  0  0  0  0  0  0  0  0  0  0  0
   -1.9989   -0.1070    1.0160 C   0  0  0  0  0  0  0  0  0  0  0  0
   -2.0482   -1.2684    1.8025 C   0  0  0  0  0  0  0  0  0  0  0  0
   -0.8763   -1.7608    2.3915 C   0  0  0  0  0  0  0  0  0  0  0  0
    0.3498   -1.1039    2.2120 C   0  0  0  0  0  0  0  0  0  0  0  0
    1.5951   -1.6549    2.8668 C   0  0  0  0  0  0  0  0  0  0  0  0
   -3.3542   -1.9810    2.0008 C   0  0  0  0  0  0  0  0  0  0  0  0
   -3.6877   -2.5389    0.6894 N   0  0  0  0  0  4  0  0  0  0  0  0
   -3.1740    0.3562    0.4767 O   0  0  0  0  0  0  0  0  0  0  0  0
   -3.1690    0.7848   -0.8964 C   0  0  0  0  0  0  0  0  0  0  0  0
   -4.4557    1.5217   -1.1485 C   0  0  0  0  0  0  0  0  0  0  0  0
   -4.7674    2.6621   -0.4033 C   0  0  0  0  0  0  0  0  0  0  0  0
   -5.9615    3.3292   -0.6705 C   0  0  0  0  0  0  0  0  0  0  0  0
   -6.8016    2.8373   -1.6723 C   0  0  0  0  0  0  0  0  0  0  0  0
   -6.5031    1.7436   -2.3919 N   0  0  0  0  0  0  0  0  0  0  0  0
   -5.3593    1.0864   -2.1313 C   0  0  0  0  0  0  0  0  0  0  0  0
   -5.0843   -3.0471    0.5250 C   0  0  1  0  0  0  0  0  0  0  0  0
   -5.5615   -2.8334   -0.9313 C   0  0  0  0  0  0  0  0  0  0  0  0
   -6.5975   -3.4160   -1.3342 O   0  0  0  0  0  1  0  0  0  0  0  0
   -4.8168   -2.0943   -1.6295 O   0  0  0  0  0  0  0  0  0  0  0  0
   -5.1961   -4.5224    0.9167 C   0  0  0  0  0  0  0  0  0  0  0  0
   -6.5653   -4.9061    0.8546 O   0  0  0  0  0  0  0  0  0  0  0  0
   -6.3291    4.5009    0.0596 C   0  0  0  0  0  0  0  0  0  0  0  0
   -6.6240    5.4583    0.6537 N   0  0  0  0  0  0  0  0  0  0  0  0
    9.2488   -1.3284   -3.1536 H   0  0  0  0  0  0  0  0  0  0  0  0
    8.8659    1.0535   -3.7542 H   0  0  0  0  0  0  0  0  0  0  0  0
    7.1741    2.3870   -2.5259 H   0  0  0  0  0  0  0  0  0  0  0  0
    6.2439   -1.0342   -0.0882 H   0  0  0  0  0  0  0  0  0  0  0  0
    7.9344   -2.3715   -1.3190 H   0  0  0  0  0  0  0  0  0  0  0  0
    7.1482    2.8615    0.2576 H   0  0  0  0  0  0  0  0  0  0  0  0
    5.6207    4.2671    1.5942 H   0  0  0  0  0  0  0  0  0  0  0  0
    3.2080    3.7792    1.6363 H   0  0  0  0  0  0  0  0  0  0  0  0
    2.8167    0.5182   -1.9641 H   0  0  0  0  0  0  0  0  0  0  0  0
    4.3676   -0.2957   -1.9972 H   0  0  0  0  0  0  0  0  0  0  0  0
    3.2391   -0.6332   -0.6758 H   0  0  0  0  0  0  0  0  0  0  0  0
    1.4481    1.6341   -0.6466 H   0  0  0  0  0  0  0  0  0  0  0  0
    1.3337    2.7526    0.7122 H   0  0  0  0  0  0  0  0  0  0  0  0
    2.4352    0.3309    1.7103 H   0  0  0  0  0  0  0  0  0  0  0  0
   -0.7441    1.4807    0.2966 H   0  0  0  0  0  0  0  0  0  0  0  0
   -0.9158   -2.6599    3.0003 H   0  0  0  0  0  0  0  0  0  0  0  0
    1.3719   -2.5550    3.4475 H   0  0  0  0  0  0  0  0  0  0  0  0
    2.3396   -1.9130    2.1070 H   0  0  0  0  0  0  0  0  0  0  0  0
    2.0250   -0.9103    3.5442 H   0  0  0  0  0  0  0  0  0  0  0  0
   -3.2703   -2.7636    2.7639 H   0  0  0  0  0  0  0  0  0  0  0  0
   -4.1202   -1.2663    2.3281 H   0  0  0  0  0  0  0  0  0  0  0  0
   -3.0214   -3.2678    0.4412 H   0  0  0  0  0  0  0  0  0  0  0  0
   -3.5830   -1.7835   -0.0082 H   0  0  0  0  0  0  0  0  0  0  0  0
   -3.0806   -0.0825   -1.5600 H   0  0  0  0  0  0  0  0  0  0  0  0
   -2.3361    1.4567   -1.1194 H   0  0  0  0  0  0  0  0  0  0  0  0
   -4.0941    3.0170    0.3743 H   0  0  0  0  0  0  0  0  0  0  0  0
   -7.7321    3.3562   -1.8842 H   0  0  0  0  0  0  0  0  0  0  0  0
   -5.1269    0.2035   -2.7191 H   0  0  0  0  0  0  0  0  0  0  0  0
   -5.7666   -2.4760    1.1612 H   0  0  0  0  0  0  0  0  0  0  0  0
   -4.8200   -4.6775    1.9328 H   0  0  0  0  0  0  0  0  0  0  0  0
   -4.6019   -5.1395    0.2346 H   0  0  0  0  0  0  0  0  0  0  0  0
   -6.9304   -4.5943   -0.0155 H   0  0  0  0  0  0  0  0  0  0  0  0
  1  2  2  0
  1  6  1  0
  2  3  1  0
  3  4  2  0
  4  5  1  0
  4  7  1  0
  5  6  2  0
  7  8  2  0
  7 12  1  0
  8  9  1  0
  9 10  2  0
 10 11  1  0
 11 12  2  0
 11 14  1  0
 12 13  1  0
 14 15  1  0
 15 16  1  0
 16 17  2  0
 16 21  1  0
 17 18  1  0
 18 19  2  0
 18 25  1  0
 19 20  1  0
 19 23  1  0
 20 21  2  0
 21 22  1  0
 23 24  1  0
 24 33  1  0
 25 26  1  0
 26 27  1  0
 27 28  2  0
 27 32  1  0
 28 29  1  0
 29 30  2  0
 29 39  1  0
 30 31  1  0
 31 32  2  0
 33 34  1  0
 33 37  1  0
 34 35  1  0
 34 36  2  0
 37 38  1  0
 39 40  3  0
  1 41  1  0
  2 42  1  0
  3 43  1  0
  5 44  1  0
  6 45  1  0
  8 46  1  0
  9 47  1  0
 10 48  1  0
 13 49  1  0
 13 50  1  0
 13 51  1  0
 14 52  1  0
 14 53  1  0
 15 54  1  0
 17 55  1  0
 20 56  1  0
 22 57  1  0
 22 58  1  0
 22 59  1  0
 23 60  1  0
 23 61  1  0
 24 62  1  0
 24 63  1  0
 26 64  1  0
 26 65  1  0
 28 66  1  0
 30 67  1  0
 32 68  1  0
 33 69  1  1
 37 70  1  0
 37 71  1  0
 38 72  1  0
M  CHG  2  24   1  35  -1
M  END
>  <%C>  (1) 
98.790520000000001

>  <mol_id>  (1) 
4

>  <isomer_id>  (1) 
1

>  <CID>  (1) 
10

>  <Energy>  (1) 
87.06028951720414

$$$$
