PD1-PDL1.sdf
     RDKit          3D

 72 75  0  0  0  0  0  0  0  0999 V2000
    6.2609    1.5529   -4.7759 C   0  0  0  0  0  0  0  0  0  0  0  0
    6.2120    0.2818   -4.1961 C   0  0  0  0  0  0  0  0  0  0  0  0
    5.8992    0.1439   -2.8391 C   0  0  0  0  0  0  0  0  0  0  0  0
    5.6262    1.2719   -2.0476 C   0  0  0  0  0  0  0  0  0  0  0  0
    5.6869    2.5430   -2.6409 C   0  0  0  0  0  0  0  0  0  0  0  0
    5.9989    2.6841   -3.9976 C   0  0  0  0  0  0  0  0  0  0  0  0
    5.3177    1.1352   -0.6125 C   0  0  0  0  0  0  0  0  0  0  0  0
    6.1303    1.8357    0.2907 C   0  0  0  0  0  0  0  0  0  0  0  0
    5.9298    1.7360    1.6646 C   0  0  0  0  0  0  0  0  0  0  0  0
    4.9124    0.9232    2.1560 C   0  0  0  0  0  0  0  0  0  0  0  0
    4.0765    0.2098    1.2844 C   0  0  0  0  0  0  0  0  0  0  0  0
    4.2573    0.3303   -0.1179 C   0  0  0  0  0  0  0  0  0  0  0  0
    3.3106   -0.3749   -1.0730 C   0  0  0  0  0  0  0  0  0  0  0  0
    2.9969   -0.6492    1.8988 C   0  0  0  0  0  0  0  0  0  0  0  0
    1.7865    0.1780    2.0001 N   0  0  0  0  0  0  0  0  0  0  0  0
    0.5291   -0.3370    1.6926 C   0  0  0  0  0  0  0  0  0  0  0  0
   -0.2326    0.3956    0.7853 C   0  0  0  0  0  0  0  0  0  0  0  0
   -1.5110   -0.0211    0.4125 C   0  0  0  0  0  0  0  0  0  0  0  0
   -2.0422   -1.2031    0.9507 C   0  0  0  0  0  0  0  0  0  0  0  0
   -1.2835   -1.9380    1.8700 C   0  0  0  0  0  0  0  0  0  0  0  0
   -0.0024   -1.5163    2.2570 C   0  0  0  0  0  0  0  0  0  0  0  0
    0.7411   -2.3215    3.2968 C   0  0  0  0  0  0  0  0  0  0  0  0
   -3.4380   -1.6499    0.6111 C   0  0  0  0  0  0  0  0  0  0  0  0
   -3.5461   -1.7704   -0.8435 N   0  0  0  0  0  4  0  0  0  0  0  0
   -2.2439    0.6994   -0.4923 O   0  0  0  0  0  0  0  0  0  0  0  0
   -2.6859    1.9976   -0.0619 C   0  0  0  0  0  0  0  0  0  0  0  0
   -3.6371    1.8919    1.1075 C   0  0  0  0  0  0  0  0  0  0  0  0
   -5.0170    1.7773    0.9064 C   0  0  0  0  0  0  0  0  0  0  0  0
   -5.8438    1.6778    2.0258 C   0  0  0  0  0  0  0  0  0  0  0  0
   -5.2688    1.6918    3.2981 C   0  0  0  0  0  0  0  0  0  0  0  0
   -3.9428    1.7939    3.4943 N   0  0  0  0  0  0  0  0  0  0  0  0
   -3.1446    1.8955    2.4197 C   0  0  0  0  0  0  0  0  0  0  0  0
   -4.9190   -2.1104   -1.3209 C   0  0  1  0  0  0  0  0  0  0  0  0
   -5.7250   -0.8826   -1.7807 C   0  0  0  0  0  0  0  0  0  0  0  0
   -6.9668   -0.9824   -1.8725 O   0  0  0  0  0  1  0  0  0  0  0  0
   -5.0563    0.1595   -2.0047 O   0  0  0  0  0  0  0  0  0  0  0  0
   -4.8048   -3.0628   -2.5091 C   0  0  0  0  0  0  0  0  0  0  0  0
   -3.7632   -4.0181   -2.2483 O   0  0  0  0  0  0  0  0  0  0  0  0
   -7.2629    1.5690    1.9013 C   0  0  0  0  0  0  0  0  0  0  0  0
   -8.4231    1.4871    1.8426 N   0  0  0  0  0  0  0  0  0  0  0  0
    6.5055    1.6619   -5.8285 H   0  0  0  0  0  0  0  0  0  0  0  0
    6.4225   -0.5977   -4.7973 H   0  0  0  0  0  0  0  0  0  0  0  0
    5.8783   -0.8455   -2.3927 H   0  0  0  0  0  0  0  0  0  0  0  0
    5.4812    3.4270   -2.0447 H   0  0  0  0  0  0  0  0  0  0  0  0
    6.0381    3.6729   -4.4452 H   0  0  0  0  0  0  0  0  0  0  0  0
    6.9416    2.4544   -0.0816 H   0  0  0  0  0  0  0  0  0  0  0  0
    6.5716    2.2831    2.3493 H   0  0  0  0  0  0  0  0  0  0  0  0
    4.7702    0.8503    3.2308 H   0  0  0  0  0  0  0  0  0  0  0  0
    3.6534   -1.3978   -1.2520 H   0  0  0  0  0  0  0  0  0  0  0  0
    2.2954   -0.4117   -0.6719 H   0  0  0  0  0  0  0  0  0  0  0  0
    3.2473    0.1476   -2.0313 H   0  0  0  0  0  0  0  0  0  0  0  0
    2.8246   -1.5421    1.2885 H   0  0  0  0  0  0  0  0  0  0  0  0
    3.3067   -0.9886    2.8928 H   0  0  0  0  0  0  0  0  0  0  0  0
    1.9356    1.1364    1.6868 H   0  0  0  0  0  0  0  0  0  0  0  0
    0.1770    1.2960    0.3426 H   0  0  0  0  0  0  0  0  0  0  0  0
   -1.7014   -2.8402    2.3079 H   0  0  0  0  0  0  0  0  0  0  0  0
    1.4977   -2.9507    2.8193 H   0  0  0  0  0  0  0  0  0  0  0  0
    1.2313   -1.6563    4.0141 H   0  0  0  0  0  0  0  0  0  0  0  0
    0.0582   -2.9693    3.8547 H   0  0  0  0  0  0  0  0  0  0  0  0
   -3.6626   -2.6072    1.0954 H   0  0  0  0  0  0  0  0  0  0  0  0
   -4.1566   -0.9086    0.9826 H   0  0  0  0  0  0  0  0  0  0  0  0
   -3.2949   -0.8533   -1.2514 H   0  0  0  0  0  0  0  0  0  0  0  0
   -2.8971   -2.4800   -1.1893 H   0  0  0  0  0  0  0  0  0  0  0  0
   -1.8310    2.6297    0.2005 H   0  0  0  0  0  0  0  0  0  0  0  0
   -3.1969    2.4830   -0.9008 H   0  0  0  0  0  0  0  0  0  0  0  0
   -5.4417    1.7642   -0.0974 H   0  0  0  0  0  0  0  0  0  0  0  0
   -5.9143    1.6140    4.1686 H   0  0  0  0  0  0  0  0  0  0  0  0
   -2.0738    1.9775    2.5809 H   0  0  0  0  0  0  0  0  0  0  0  0
   -5.4912   -2.5992   -0.5280 H   0  0  0  0  0  0  0  0  0  0  0  0
   -5.7629   -3.5703   -2.6664 H   0  0  0  0  0  0  0  0  0  0  0  0
   -4.5633   -2.5052   -3.4214 H   0  0  0  0  0  0  0  0  0  0  0  0
   -3.7601   -4.6986   -2.9464 H   0  0  0  0  0  0  0  0  0  0  0  0
  1  2  2  0
  1  6  1  0
  2  3  1  0
  3  4  2  0
  4  5  1  0
  4  7  1  0
  5  6  2  0
  7  8  2  0
  7 12  1  0
  8  9  1  0
  9 10  2  0
 10 11  1  0
 11 12  2  0
 11 14  1  0
 12 13  1  0
 14 15  1  0
 15 16  1  0
 16 17  2  0
 16 21  1  0
 17 18  1  0
 18 19  2  0
 18 25  1  0
 19 20  1  0
 19 23  1  0
 20 21  2  0
 21 22  1  0
 23 24  1  0
 24 33  1  0
 25 26  1  0
 26 27  1  0
 27 28  2  0
 27 32  1  0
 28 29  1  0
 29 30  2  0
 29 39  1  0
 30 31  1  0
 31 32  2  0
 33 34  1  0
 33 37  1  0
 34 35  1  0
 34 36  2  0
 37 38  1  0
 39 40  3  0
  1 41  1  0
  2 42  1  0
  3 43  1  0
  5 44  1  0
  6 45  1  0
  8 46  1  0
  9 47  1  0
 10 48  1  0
 13 49  1  0
 13 50  1  0
 13 51  1  0
 14 52  1  0
 14 53  1  0
 15 54  1  0
 17 55  1  0
 20 56  1  0
 22 57  1  0
 22 58  1  0
 22 59  1  0
 23 60  1  0
 23 61  1  0
 24 62  1  0
 24 63  1  0
 26 64  1  0
 26 65  1  0
 28 66  1  0
 30 67  1  0
 32 68  1  0
 33 69  1  1
 37 70  1  0
 37 71  1  0
 38 72  1  0
M  CHG  2  24   1  35  -1
M  END
>  <%C>  (1) 
98.790520000000001

>  <mol_id>  (1) 
4

>  <isomer_id>  (1) 
1

>  <CID>  (1) 
10

>  <Energy>  (1) 
87.06028951720414

$$$$
