PD1-PDL1.sdf
     RDKit          3D

 72 75  0  0  0  0  0  0  0  0999 V2000
    9.5474   -0.1124   -0.2734 C   0  0  0  0  0  0  0  0  0  0  0  0
    9.2313    1.0513   -0.9809 C   0  0  0  0  0  0  0  0  0  0  0  0
    7.8926    1.3888   -1.2097 C   0  0  0  0  0  0  0  0  0  0  0  0
    6.8556    0.5744   -0.7278 C   0  0  0  0  0  0  0  0  0  0  0  0
    7.1869   -0.5960   -0.0254 C   0  0  0  0  0  0  0  0  0  0  0  0
    8.5247   -0.9380    0.2032 C   0  0  0  0  0  0  0  0  0  0  0  0
    5.4487    0.9319   -0.9857 C   0  0  0  0  0  0  0  0  0  0  0  0
    5.0573    1.0792   -2.3228 C   0  0  0  0  0  0  0  0  0  0  0  0
    3.7407    1.3832   -2.6532 C   0  0  0  0  0  0  0  0  0  0  0  0
    2.7930    1.5423   -1.6470 C   0  0  0  0  0  0  0  0  0  0  0  0
    3.1428    1.4091   -0.2894 C   0  0  0  0  0  0  0  0  0  0  0  0
    4.4926    1.1195    0.0477 C   0  0  0  0  0  0  0  0  0  0  0  0
    4.9132    1.0264    1.5052 C   0  0  0  0  0  0  0  0  0  0  0  0
    2.0945    1.5862    0.7993 C   0  0  0  0  0  0  0  0  0  0  0  0
    0.7087    1.6521    0.2943 N   0  0  0  0  0  0  0  0  0  0  0  0
   -0.2783    0.7696    0.7308 C   0  0  0  0  0  0  0  0  0  0  0  0
   -1.4413    1.3494    1.2330 C   0  0  0  0  0  0  0  0  0  0  0  0
   -2.5095    0.5682    1.6980 C   0  0  0  0  0  0  0  0  0  0  0  0
   -2.3935   -0.8291    1.6714 C   0  0  0  0  0  0  0  0  0  0  0  0
   -1.2170   -1.4141    1.1777 C   0  0  0  0  0  0  0  0  0  0  0  0
   -0.1670   -0.6338    0.6792 C   0  0  0  0  0  0  0  0  0  0  0  0
    1.0165   -1.3406    0.0595 C   0  0  0  0  0  0  0  0  0  0  0  0
   -3.5392   -1.6723    2.1762 C   0  0  0  0  0  0  0  0  0  0  0  0
   -3.8644   -2.8014    1.2824 N   0  0  0  0  0  4  0  0  0  0  0  0
   -3.6569    1.1121    2.2298 O   0  0  0  0  0  0  0  0  0  0  0  0
   -4.2240    2.2655    1.5878 C   0  0  0  0  0  0  0  0  0  0  0  0
   -4.7921    1.8851    0.2445 C   0  0  0  0  0  0  0  0  0  0  0  0
   -5.8849    1.0201    0.1566 C   0  0  0  0  0  0  0  0  0  0  0  0
   -6.3870    0.7054   -1.1054 C   0  0  0  0  0  0  0  0  0  0  0  0
   -5.7757    1.2570   -2.2355 C   0  0  0  0  0  0  0  0  0  0  0  0
   -4.7261    2.0931   -2.1512 N   0  0  0  0  0  0  0  0  0  0  0  0
   -4.2349    2.3893   -0.9382 C   0  0  0  0  0  0  0  0  0  0  0  0
   -4.1338   -2.4354   -0.1433 C   0  0  1  0  0  0  0  0  0  0  0  0
   -3.1186   -3.0804   -1.1047 C   0  0  0  0  0  0  0  0  0  0  0  0
   -3.1409   -2.7780   -2.3178 O   0  0  0  0  0  1  0  0  0  0  0  0
   -2.3426   -3.9184   -0.5683 O   0  0  0  0  0  0  0  0  0  0  0  0
   -5.5196   -2.9363   -0.5412 C   0  0  0  0  0  0  0  0  0  0  0  0
   -6.4501   -2.6282    0.5063 O   0  0  0  0  0  0  0  0  0  0  0  0
   -7.5055   -0.1721   -1.2436 C   0  0  0  0  0  0  0  0  0  0  0  0
   -8.3993   -0.9166   -1.3192 N   0  0  0  0  0  0  0  0  0  0  0  0
   10.5861   -0.3761   -0.0974 H   0  0  0  0  0  0  0  0  0  0  0  0
   10.0244    1.6934   -1.3530 H   0  0  0  0  0  0  0  0  0  0  0  0
    7.6544    2.2956   -1.7576 H   0  0  0  0  0  0  0  0  0  0  0  0
    6.3974   -1.2479    0.3356 H   0  0  0  0  0  0  0  0  0  0  0  0
    8.7681   -1.8467    0.7462 H   0  0  0  0  0  0  0  0  0  0  0  0
    5.7833    0.9349   -3.1174 H   0  0  0  0  0  0  0  0  0  0  0  0
    3.4477    1.4820   -3.6943 H   0  0  0  0  0  0  0  0  0  0  0  0
    1.7719    1.7611   -1.9445 H   0  0  0  0  0  0  0  0  0  0  0  0
    5.9673    1.2882    1.6329 H   0  0  0  0  0  0  0  0  0  0  0  0
    4.3445    1.7163    2.1332 H   0  0  0  0  0  0  0  0  0  0  0  0
    4.7575    0.0082    1.8732 H   0  0  0  0  0  0  0  0  0  0  0  0
    2.3065    2.5142    1.3398 H   0  0  0  0  0  0  0  0  0  0  0  0
    2.1837    0.7699    1.5236 H   0  0  0  0  0  0  0  0  0  0  0  0
    0.3805    2.5872    0.0669 H   0  0  0  0  0  0  0  0  0  0  0  0
   -1.4879    2.4280    1.2846 H   0  0  0  0  0  0  0  0  0  0  0  0
   -1.1158   -2.4948    1.1460 H   0  0  0  0  0  0  0  0  0  0  0  0
    0.7485   -2.3597   -0.2377 H   0  0  0  0  0  0  0  0  0  0  0  0
    1.3506   -0.8130   -0.8380 H   0  0  0  0  0  0  0  0  0  0  0  0
    1.8457   -1.3966    0.7695 H   0  0  0  0  0  0  0  0  0  0  0  0
   -4.4249   -1.0344    2.2797 H   0  0  0  0  0  0  0  0  0  0  0  0
   -3.2852   -2.0413    3.1765 H   0  0  0  0  0  0  0  0  0  0  0  0
   -3.0781   -3.4675    1.2579 H   0  0  0  0  0  0  0  0  0  0  0  0
   -4.6974   -3.2781    1.6332 H   0  0  0  0  0  0  0  0  0  0  0  0
   -3.4973    3.0774    1.4933 H   0  0  0  0  0  0  0  0  0  0  0  0
   -5.0332    2.6481    2.2184 H   0  0  0  0  0  0  0  0  0  0  0  0
   -6.3321    0.5964    1.0533 H   0  0  0  0  0  0  0  0  0  0  0  0
   -6.1624    1.0104   -3.2203 H   0  0  0  0  0  0  0  0  0  0  0  0
   -3.3809    3.0572   -0.8785 H   0  0  0  0  0  0  0  0  0  0  0  0
   -4.0829   -1.3518   -0.2829 H   0  0  0  0  0  0  0  0  0  0  0  0
   -5.8222   -2.4650   -1.4819 H   0  0  0  0  0  0  0  0  0  0  0  0
   -5.5037   -4.0205   -0.7017 H   0  0  0  0  0  0  0  0  0  0  0  0
   -7.3584   -2.6312    0.1423 H   0  0  0  0  0  0  0  0  0  0  0  0
  1  2  2  0
  1  6  1  0
  2  3  1  0
  3  4  2  0
  4  5  1  0
  4  7  1  0
  5  6  2  0
  7  8  2  0
  7 12  1  0
  8  9  1  0
  9 10  2  0
 10 11  1  0
 11 12  2  0
 11 14  1  0
 12 13  1  0
 14 15  1  0
 15 16  1  0
 16 17  2  0
 16 21  1  0
 17 18  1  0
 18 19  2  0
 18 25  1  0
 19 20  1  0
 19 23  1  0
 20 21  2  0
 21 22  1  0
 23 24  1  0
 24 33  1  0
 25 26  1  0
 26 27  1  0
 27 28  2  0
 27 32  1  0
 28 29  1  0
 29 30  2  0
 29 39  1  0
 30 31  1  0
 31 32  2  0
 33 34  1  0
 33 37  1  0
 34 35  1  0
 34 36  2  0
 37 38  1  0
 39 40  3  0
  1 41  1  0
  2 42  1  0
  3 43  1  0
  5 44  1  0
  6 45  1  0
  8 46  1  0
  9 47  1  0
 10 48  1  0
 13 49  1  0
 13 50  1  0
 13 51  1  0
 14 52  1  0
 14 53  1  0
 15 54  1  0
 17 55  1  0
 20 56  1  0
 22 57  1  0
 22 58  1  0
 22 59  1  0
 23 60  1  0
 23 61  1  0
 24 62  1  0
 24 63  1  0
 26 64  1  0
 26 65  1  0
 28 66  1  0
 30 67  1  0
 32 68  1  0
 33 69  1  1
 37 70  1  0
 37 71  1  0
 38 72  1  0
M  CHG  2  24   1  35  -1
M  END
>  <%C>  (1) 
98.790520000000001

>  <mol_id>  (1) 
4

>  <isomer_id>  (1) 
1

>  <CID>  (1) 
10

>  <Energy>  (1) 
87.06028951720414

$$$$
