PD1-PDL1.sdf
     RDKit          3D

 72 75  0  0  0  0  0  0  0  0999 V2000
   10.0393    0.8953    0.6801 C   0  0  0  0  0  0  0  0  0  0  0  0
    9.0832    1.8406    1.0627 C   0  0  0  0  0  0  0  0  0  0  0  0
    7.7817    1.7649    0.5537 C   0  0  0  0  0  0  0  0  0  0  0  0
    7.4183    0.7417   -0.3374 C   0  0  0  0  0  0  0  0  0  0  0  0
    8.3918   -0.1949   -0.7212 C   0  0  0  0  0  0  0  0  0  0  0  0
    9.6938   -0.1217   -0.2143 C   0  0  0  0  0  0  0  0  0  0  0  0
    6.0550    0.6676   -0.8956 C   0  0  0  0  0  0  0  0  0  0  0  0
    5.9347    0.6739   -2.2915 C   0  0  0  0  0  0  0  0  0  0  0  0
    4.6864    0.6362   -2.9032 C   0  0  0  0  0  0  0  0  0  0  0  0
    3.5345    0.6007   -2.1238 C   0  0  0  0  0  0  0  0  0  0  0  0
    3.6060    0.5920   -0.7172 C   0  0  0  0  0  0  0  0  0  0  0  0
    4.8835    0.5993   -0.0940 C   0  0  0  0  0  0  0  0  0  0  0  0
    4.9908    0.5089    1.4194 C   0  0  0  0  0  0  0  0  0  0  0  0
    2.3350    0.5602    0.1198 C   0  0  0  0  0  0  0  0  0  0  0  0
    1.1202    0.8757   -0.6598 N   0  0  0  0  0  0  0  0  0  0  0  0
   -0.0713    0.1605   -0.5340 C   0  0  0  0  0  0  0  0  0  0  0  0
   -1.2198    0.9266   -0.3263 C   0  0  0  0  0  0  0  0  0  0  0  0
   -2.4834    0.3325   -0.1779 C   0  0  0  0  0  0  0  0  0  0  0  0
   -2.5794   -1.0621   -0.2330 C   0  0  0  0  0  0  0  0  0  0  0  0
   -1.4358   -1.8383   -0.4554 C   0  0  0  0  0  0  0  0  0  0  0  0
   -0.1793   -1.2448   -0.6292 C   0  0  0  0  0  0  0  0  0  0  0  0
    0.9876   -2.1526   -0.9474 C   0  0  0  0  0  0  0  0  0  0  0  0
   -3.9015   -1.7420   -0.0614 C   0  0  0  0  0  0  0  0  0  0  0  0
   -3.9613   -2.1375    1.3460 N   0  0  0  0  0  4  0  0  0  0  0  0
   -3.6430    1.0355    0.0511 O   0  0  0  0  0  0  0  0  0  0  0  0
   -3.6851    2.4103   -0.3518 C   0  0  0  0  0  0  0  0  0  0  0  0
   -5.1299    2.8231   -0.3923 C   0  0  0  0  0  0  0  0  0  0  0  0
   -5.9604    2.3954   -1.4315 C   0  0  0  0  0  0  0  0  0  0  0  0
   -7.2971    2.7930   -1.4215 C   0  0  0  0  0  0  0  0  0  0  0  0
   -7.7579    3.5993   -0.3767 C   0  0  0  0  0  0  0  0  0  0  0  0
   -6.9594    4.0075    0.6255 N   0  0  0  0  0  0  0  0  0  0  0  0
   -5.6731    3.6242    0.6210 C   0  0  0  0  0  0  0  0  0  0  0  0
   -4.8242   -3.3358    1.5871 C   0  0  1  0  0  0  0  0  0  0  0  0
   -3.9546   -4.5694    1.9179 C   0  0  0  0  0  0  0  0  0  0  0  0
   -4.5199   -5.6475    2.2236 O   0  0  0  0  0  1  0  0  0  0  0  0
   -2.7111   -4.3708    1.8936 O   0  0  0  0  0  0  0  0  0  0  0  0
   -5.8112   -3.1045    2.7323 C   0  0  0  0  0  0  0  0  0  0  0  0
   -6.7047   -4.2127    2.7748 O   0  0  0  0  0  0  0  0  0  0  0  0
   -8.1926    2.3878   -2.4581 C   0  0  0  0  0  0  0  0  0  0  0  0
   -8.9203    2.0575   -3.3050 N   0  0  0  0  0  0  0  0  0  0  0  0
   11.0496    0.9517    1.0747 H   0  0  0  0  0  0  0  0  0  0  0  0
    9.3520    2.6361    1.7513 H   0  0  0  0  0  0  0  0  0  0  0  0
    7.0494    2.5116    0.8444 H   0  0  0  0  0  0  0  0  0  0  0  0
    8.1312   -0.9915   -1.4116 H   0  0  0  0  0  0  0  0  0  0  0  0
   10.4350   -0.8560   -0.5159 H   0  0  0  0  0  0  0  0  0  0  0  0
    6.8260    0.7223   -2.9102 H   0  0  0  0  0  0  0  0  0  0  0  0
    4.6106    0.6421   -3.9866 H   0  0  0  0  0  0  0  0  0  0  0  0
    2.5776    0.5744   -2.6364 H   0  0  0  0  0  0  0  0  0  0  0  0
    4.9042    1.5058    1.8609 H   0  0  0  0  0  0  0  0  0  0  0  0
    5.9442    0.0714    1.7278 H   0  0  0  0  0  0  0  0  0  0  0  0
    4.2086   -0.1298    1.8374 H   0  0  0  0  0  0  0  0  0  0  0  0
    2.4188    1.2966    0.9258 H   0  0  0  0  0  0  0  0  0  0  0  0
    2.2483   -0.4194    0.5971 H   0  0  0  0  0  0  0  0  0  0  0  0
    1.0131    1.8605   -0.8917 H   0  0  0  0  0  0  0  0  0  0  0  0
   -1.1079    2.0007   -0.2578 H   0  0  0  0  0  0  0  0  0  0  0  0
   -1.5244   -2.9225   -0.4997 H   0  0  0  0  0  0  0  0  0  0  0  0
    1.7164   -1.6456   -1.5851 H   0  0  0  0  0  0  0  0  0  0  0  0
    0.6474   -3.0459   -1.4803 H   0  0  0  0  0  0  0  0  0  0  0  0
    1.4820   -2.4738   -0.0261 H   0  0  0  0  0  0  0  0  0  0  0  0
   -3.9585   -2.6182   -0.7190 H   0  0  0  0  0  0  0  0  0  0  0  0
   -4.7248   -1.0668   -0.3248 H   0  0  0  0  0  0  0  0  0  0  0  0
   -4.2585   -1.3465    1.9150 H   0  0  0  0  0  0  0  0  0  0  0  0
   -3.0064   -2.4130    1.6320 H   0  0  0  0  0  0  0  0  0  0  0  0
   -3.1265    3.0318    0.3568 H   0  0  0  0  0  0  0  0  0  0  0  0
   -3.2396    2.5418   -1.3450 H   0  0  0  0  0  0  0  0  0  0  0  0
   -5.5762    1.7612   -2.2283 H   0  0  0  0  0  0  0  0  0  0  0  0
   -8.7987    3.9111   -0.3681 H   0  0  0  0  0  0  0  0  0  0  0  0
   -5.0355    3.9526    1.4367 H   0  0  0  0  0  0  0  0  0  0  0  0
   -5.4013   -3.5751    0.6897 H   0  0  0  0  0  0  0  0  0  0  0  0
   -6.3789   -2.1827    2.5693 H   0  0  0  0  0  0  0  0  0  0  0  0
   -5.2762   -3.0143    3.6840 H   0  0  0  0  0  0  0  0  0  0  0  0
   -6.1664   -5.0459    2.7346 H   0  0  0  0  0  0  0  0  0  0  0  0
  1  2  2  0
  1  6  1  0
  2  3  1  0
  3  4  2  0
  4  5  1  0
  4  7  1  0
  5  6  2  0
  7  8  2  0
  7 12  1  0
  8  9  1  0
  9 10  2  0
 10 11  1  0
 11 12  2  0
 11 14  1  0
 12 13  1  0
 14 15  1  0
 15 16  1  0
 16 17  2  0
 16 21  1  0
 17 18  1  0
 18 19  2  0
 18 25  1  0
 19 20  1  0
 19 23  1  0
 20 21  2  0
 21 22  1  0
 23 24  1  0
 24 33  1  0
 25 26  1  0
 26 27  1  0
 27 28  2  0
 27 32  1  0
 28 29  1  0
 29 30  2  0
 29 39  1  0
 30 31  1  0
 31 32  2  0
 33 34  1  0
 33 37  1  0
 34 35  1  0
 34 36  2  0
 37 38  1  0
 39 40  3  0
  1 41  1  0
  2 42  1  0
  3 43  1  0
  5 44  1  0
  6 45  1  0
  8 46  1  0
  9 47  1  0
 10 48  1  0
 13 49  1  0
 13 50  1  0
 13 51  1  0
 14 52  1  0
 14 53  1  0
 15 54  1  0
 17 55  1  0
 20 56  1  0
 22 57  1  0
 22 58  1  0
 22 59  1  0
 23 60  1  0
 23 61  1  0
 24 62  1  0
 24 63  1  0
 26 64  1  0
 26 65  1  0
 28 66  1  0
 30 67  1  0
 32 68  1  0
 33 69  1  6
 37 70  1  0
 37 71  1  0
 38 72  1  0
M  CHG  2  24   1  35  -1
M  END
>  <%C>  (1) 
98.790520000000001

>  <mol_id>  (1) 
4

>  <isomer_id>  (1) 
1

>  <CID>  (1) 
10

>  <Energy>  (1) 
87.06028951720414

$$$$
