PD1-PDL1.sdf
     RDKit          3D

 72 75  0  0  0  0  0  0  0  0999 V2000
    8.8636    1.9272    1.2723 C   0  0  0  0  0  0  0  0  0  0  0  0
    7.7183    1.5874    1.9982 C   0  0  0  0  0  0  0  0  0  0  0  0
    6.4762    1.5251    1.3562 C   0  0  0  0  0  0  0  0  0  0  0  0
    6.3651    1.7957   -0.0176 C   0  0  0  0  0  0  0  0  0  0  0  0
    7.5209    2.1492   -0.7317 C   0  0  0  0  0  0  0  0  0  0  0  0
    8.7644    2.2109   -0.0929 C   0  0  0  0  0  0  0  0  0  0  0  0
    5.0615    1.7342   -0.7026 C   0  0  0  0  0  0  0  0  0  0  0  0
    4.6207    2.8951   -1.3533 C   0  0  0  0  0  0  0  0  0  0  0  0
    3.3895    2.9303   -2.0020 C   0  0  0  0  0  0  0  0  0  0  0  0
    2.5789    1.7992   -2.0070 C   0  0  0  0  0  0  0  0  0  0  0  0
    2.9916    0.6132   -1.3810 C   0  0  0  0  0  0  0  0  0  0  0  0
    4.2523    0.5670   -0.7271 C   0  0  0  0  0  0  0  0  0  0  0  0
    4.7344   -0.7170   -0.0713 C   0  0  0  0  0  0  0  0  0  0  0  0
    2.0479   -0.5675   -1.4265 C   0  0  0  0  0  0  0  0  0  0  0  0
    1.4512   -0.7101   -0.0899 N   0  0  0  0  0  0  0  0  0  0  0  0
    0.0798   -0.9034    0.0555 C   0  0  0  0  0  0  0  0  0  0  0  0
   -0.5923   -0.0088    0.8874 C   0  0  0  0  0  0  0  0  0  0  0  0
   -1.9764   -0.0892    1.0708 C   0  0  0  0  0  0  0  0  0  0  0  0
   -2.6915   -1.1099    0.4362 C   0  0  0  0  0  0  0  0  0  0  0  0
   -2.0204   -2.0280   -0.3813 C   0  0  0  0  0  0  0  0  0  0  0  0
   -0.6360   -1.9411   -0.5778 C   0  0  0  0  0  0  0  0  0  0  0  0
    0.0349   -2.9891   -1.4349 C   0  0  0  0  0  0  0  0  0  0  0  0
   -4.1706   -1.2330    0.6184 C   0  0  0  0  0  0  0  0  0  0  0  0
   -4.3636   -2.3331    1.5630 N   0  0  0  0  0  4  0  0  0  0  0  0
   -2.6501    0.8177    1.8496 O   0  0  0  0  0  0  0  0  0  0  0  0
   -2.5840    2.1785    1.3908 C   0  0  0  0  0  0  0  0  0  0  0  0
   -3.3656    2.3177    0.1085 C   0  0  0  0  0  0  0  0  0  0  0  0
   -2.7361    2.1874   -1.1331 C   0  0  0  0  0  0  0  0  0  0  0  0
   -3.5129    2.2776   -2.2863 C   0  0  0  0  0  0  0  0  0  0  0  0
   -4.8876    2.4965   -2.1624 C   0  0  0  0  0  0  0  0  0  0  0  0
   -5.4935    2.6207   -0.9677 N   0  0  0  0  0  0  0  0  0  0  0  0
   -4.7486    2.5320    0.1453 C   0  0  0  0  0  0  0  0  0  0  0  0
   -5.6614   -3.0485    1.3865 C   0  0  1  0  0  0  0  0  0  0  0  0
   -5.5634   -4.2266    0.3983 C   0  0  0  0  0  0  0  0  0  0  0  0
   -4.3965   -4.5315    0.0347 O   0  0  0  0  0  1  0  0  0  0  0  0
   -6.6106   -4.8179    0.0572 O   0  0  0  0  0  0  0  0  0  0  0  0
   -6.1057   -3.5995    2.7395 C   0  0  0  0  0  0  0  0  0  0  0  0
   -5.8514   -2.6111    3.7502 O   0  0  0  0  0  0  0  0  0  0  0  0
   -2.9201    2.1430   -3.5790 C   0  0  0  0  0  0  0  0  0  0  0  0
   -2.4276    2.0366   -4.6290 N   0  0  0  0  0  0  0  0  0  0  0  0
    9.8288    1.9726    1.7685 H   0  0  0  0  0  0  0  0  0  0  0  0
    7.7929    1.3721    3.0601 H   0  0  0  0  0  0  0  0  0  0  0  0
    5.5899    1.2701    1.9286 H   0  0  0  0  0  0  0  0  0  0  0  0
    7.4541    2.3627   -1.7944 H   0  0  0  0  0  0  0  0  0  0  0  0
    9.6525    2.4774   -0.6585 H   0  0  0  0  0  0  0  0  0  0  0  0
    5.2391    3.7878   -1.3400 H   0  0  0  0  0  0  0  0  0  0  0  0
    3.0607    3.8391   -2.4975 H   0  0  0  0  0  0  0  0  0  0  0  0
    1.6173    1.8475   -2.5105 H   0  0  0  0  0  0  0  0  0  0  0  0
    4.3581   -0.7766    0.9539 H   0  0  0  0  0  0  0  0  0  0  0  0
    4.3985   -1.6008   -0.6165 H   0  0  0  0  0  0  0  0  0  0  0  0
    5.8264   -0.7676   -0.0476 H   0  0  0  0  0  0  0  0  0  0  0  0
    1.2699   -0.3919   -2.1783 H   0  0  0  0  0  0  0  0  0  0  0  0
    2.5735   -1.4796   -1.7225 H   0  0  0  0  0  0  0  0  0  0  0  0
    1.8631   -0.0827    0.5985 H   0  0  0  0  0  0  0  0  0  0  0  0
   -0.0334    0.7684    1.3942 H   0  0  0  0  0  0  0  0  0  0  0  0
   -2.5819   -2.8264   -0.8649 H   0  0  0  0  0  0  0  0  0  0  0  0
   -0.5823   -3.8909   -1.5016 H   0  0  0  0  0  0  0  0  0  0  0  0
    0.1938   -2.6058   -2.4469 H   0  0  0  0  0  0  0  0  0  0  0  0
    1.0003   -3.2757   -1.0073 H   0  0  0  0  0  0  0  0  0  0  0  0
   -4.6453   -1.4551   -0.3452 H   0  0  0  0  0  0  0  0  0  0  0  0
   -4.5972   -0.2978    0.9993 H   0  0  0  0  0  0  0  0  0  0  0  0
   -4.3038   -1.9908    2.5257 H   0  0  0  0  0  0  0  0  0  0  0  0
   -3.6179   -3.0213    1.3985 H   0  0  0  0  0  0  0  0  0  0  0  0
   -1.5478    2.4997    1.2418 H   0  0  0  0  0  0  0  0  0  0  0  0
   -3.0104    2.8338    2.1577 H   0  0  0  0  0  0  0  0  0  0  0  0
   -1.6661    1.9995   -1.2023 H   0  0  0  0  0  0  0  0  0  0  0  0
   -5.4951    2.5668   -3.0603 H   0  0  0  0  0  0  0  0  0  0  0  0
   -5.2440    2.6208    1.1078 H   0  0  0  0  0  0  0  0  0  0  0  0
   -6.4270   -2.3638    1.0125 H   0  0  0  0  0  0  0  0  0  0  0  0
   -5.5502   -4.5135    2.9786 H   0  0  0  0  0  0  0  0  0  0  0  0
   -7.1715   -3.8507    2.7052 H   0  0  0  0  0  0  0  0  0  0  0  0
   -6.2298   -2.9041    4.5996 H   0  0  0  0  0  0  0  0  0  0  0  0
  1  2  2  0
  1  6  1  0
  2  3  1  0
  3  4  2  0
  4  5  1  0
  4  7  1  0
  5  6  2  0
  7  8  2  0
  7 12  1  0
  8  9  1  0
  9 10  2  0
 10 11  1  0
 11 12  2  0
 11 14  1  0
 12 13  1  0
 14 15  1  0
 15 16  1  0
 16 17  2  0
 16 21  1  0
 17 18  1  0
 18 19  2  0
 18 25  1  0
 19 20  1  0
 19 23  1  0
 20 21  2  0
 21 22  1  0
 23 24  1  0
 24 33  1  0
 25 26  1  0
 26 27  1  0
 27 28  2  0
 27 32  1  0
 28 29  1  0
 29 30  2  0
 29 39  1  0
 30 31  1  0
 31 32  2  0
 33 34  1  0
 33 37  1  0
 34 35  1  0
 34 36  2  0
 37 38  1  0
 39 40  3  0
  1 41  1  0
  2 42  1  0
  3 43  1  0
  5 44  1  0
  6 45  1  0
  8 46  1  0
  9 47  1  0
 10 48  1  0
 13 49  1  0
 13 50  1  0
 13 51  1  0
 14 52  1  0
 14 53  1  0
 15 54  1  0
 17 55  1  0
 20 56  1  0
 22 57  1  0
 22 58  1  0
 22 59  1  0
 23 60  1  0
 23 61  1  0
 24 62  1  0
 24 63  1  0
 26 64  1  0
 26 65  1  0
 28 66  1  0
 30 67  1  0
 32 68  1  0
 33 69  1  6
 37 70  1  0
 37 71  1  0
 38 72  1  0
M  CHG  2  24   1  35  -1
M  END
>  <%C>  (1) 
98.790520000000001

>  <mol_id>  (1) 
4

>  <isomer_id>  (1) 
1

>  <CID>  (1) 
10

>  <Energy>  (1) 
87.06028951720414

$$$$
