PD1-PDL1.sdf
     RDKit          3D

 72 75  0  0  0  0  0  0  0  0999 V2000
    8.3363    1.3694    1.4391 C   0  0  0  0  0  0  0  0  0  0  0  0
    8.1217    2.3410    0.4571 C   0  0  0  0  0  0  0  0  0  0  0  0
    6.8769    2.4337   -0.1750 C   0  0  0  0  0  0  0  0  0  0  0  0
    5.8362    1.5535    0.1608 C   0  0  0  0  0  0  0  0  0  0  0  0
    6.0599    0.5907    1.1580 C   0  0  0  0  0  0  0  0  0  0  0  0
    7.3037    0.4953    1.7917 C   0  0  0  0  0  0  0  0  0  0  0  0
    4.5259    1.6653   -0.5031 C   0  0  0  0  0  0  0  0  0  0  0  0
    3.8679    2.8996   -0.4216 C   0  0  0  0  0  0  0  0  0  0  0  0
    2.6132    3.0820   -0.9944 C   0  0  0  0  0  0  0  0  0  0  0  0
    1.9948    2.0232   -1.6522 C   0  0  0  0  0  0  0  0  0  0  0  0
    2.6215    0.7712   -1.7594 C   0  0  0  0  0  0  0  0  0  0  0  0
    3.9151    0.5893   -1.2002 C   0  0  0  0  0  0  0  0  0  0  0  0
    4.6475   -0.7325   -1.3580 C   0  0  0  0  0  0  0  0  0  0  0  0
    1.8781   -0.3309   -2.4877 C   0  0  0  0  0  0  0  0  0  0  0  0
    1.5625   -1.4446   -1.5726 N   0  0  0  0  0  0  0  0  0  0  0  0
    0.5135   -1.4847   -0.6492 C   0  0  0  0  0  0  0  0  0  0  0  0
   -0.4372   -0.4622   -0.5650 C   0  0  0  0  0  0  0  0  0  0  0  0
   -1.4824   -0.5061    0.3686 C   0  0  0  0  0  0  0  0  0  0  0  0
   -1.5648   -1.6001    1.2443 C   0  0  0  0  0  0  0  0  0  0  0  0
   -0.6214   -2.6303    1.1608 C   0  0  0  0  0  0  0  0  0  0  0  0
    0.4168   -2.5852    0.2212 C   0  0  0  0  0  0  0  0  0  0  0  0
    1.4125   -3.7210    0.1654 C   0  0  0  0  0  0  0  0  0  0  0  0
   -2.6720   -1.6976    2.2587 C   0  0  0  0  0  0  0  0  0  0  0  0
   -3.9506   -1.6936    1.5368 N   0  0  0  0  0  4  0  0  0  0  0  0
   -2.4394    0.4771    0.4738 O   0  0  0  0  0  0  0  0  0  0  0  0
   -2.8131    1.1664   -0.7281 C   0  0  0  0  0  0  0  0  0  0  0  0
   -4.0616    1.9540   -0.4392 C   0  0  0  0  0  0  0  0  0  0  0  0
   -4.0820    2.8942    0.5947 C   0  0  0  0  0  0  0  0  0  0  0  0
   -5.2576    3.6068    0.8257 C   0  0  0  0  0  0  0  0  0  0  0  0
   -6.3696    3.3607    0.0159 C   0  0  0  0  0  0  0  0  0  0  0  0
   -6.3504    2.4589   -0.9806 N   0  0  0  0  0  0  0  0  0  0  0  0
   -5.2227    1.7645   -1.2028 C   0  0  0  0  0  0  0  0  0  0  0  0
   -4.2328   -2.9270    0.7349 C   0  0  1  0  0  0  0  0  0  0  0  0
   -5.5465   -3.5996    1.1508 C   0  0  0  0  0  0  0  0  0  0  0  0
   -5.6227   -4.8451    1.1767 O   0  0  0  0  0  1  0  0  0  0  0  0
   -6.4554   -2.7948    1.4850 O   0  0  0  0  0  0  0  0  0  0  0  0
   -4.3799   -2.5202   -0.7302 C   0  0  0  0  0  0  0  0  0  0  0  0
   -5.2600   -1.3902   -0.7833 O   0  0  0  0  0  0  0  0  0  0  0  0
   -5.3340    4.5782    1.8706 C   0  0  0  0  0  0  0  0  0  0  0  0
   -5.3904    5.3704    2.7222 N   0  0  0  0  0  0  0  0  0  0  0  0
    9.3025    1.2966    1.9299 H   0  0  0  0  0  0  0  0  0  0  0  0
    8.9207    3.0241    0.1843 H   0  0  0  0  0  0  0  0  0  0  0  0
    6.7191    3.1885   -0.9397 H   0  0  0  0  0  0  0  0  0  0  0  0
    5.2566   -0.0798    1.4476 H   0  0  0  0  0  0  0  0  0  0  0  0
    7.4652   -0.2540    2.5610 H   0  0  0  0  0  0  0  0  0  0  0  0
    4.3334    3.7239    0.1106 H   0  0  0  0  0  0  0  0  0  0  0  0
    2.1154    4.0442   -0.9185 H   0  0  0  0  0  0  0  0  0  0  0  0
    1.0123    2.1850   -2.0840 H   0  0  0  0  0  0  0  0  0  0  0  0
    4.3935   -1.2243   -2.2992 H   0  0  0  0  0  0  0  0  0  0  0  0
    5.7313   -0.5863   -1.3659 H   0  0  0  0  0  0  0  0  0  0  0  0
    4.3911   -1.4013   -0.5318 H   0  0  0  0  0  0  0  0  0  0  0  0
    2.4919   -0.6982   -3.3159 H   0  0  0  0  0  0  0  0  0  0  0  0
    0.9619    0.0534   -2.9473 H   0  0  0  0  0  0  0  0  0  0  0  0
    2.2948   -2.1366   -1.4355 H   0  0  0  0  0  0  0  0  0  0  0  0
   -0.3493    0.3891   -1.2213 H   0  0  0  0  0  0  0  0  0  0  0  0
   -0.6994   -3.4812    1.8322 H   0  0  0  0  0  0  0  0  0  0  0  0
    1.1297   -4.5296    0.8465 H   0  0  0  0  0  0  0  0  0  0  0  0
    2.4065   -3.3642    0.4512 H   0  0  0  0  0  0  0  0  0  0  0  0
    1.4613   -4.1337   -0.8469 H   0  0  0  0  0  0  0  0  0  0  0  0
   -2.5666   -2.6122    2.8541 H   0  0  0  0  0  0  0  0  0  0  0  0
   -2.6099   -0.8417    2.9418 H   0  0  0  0  0  0  0  0  0  0  0  0
   -3.9514   -0.8927    0.8933 H   0  0  0  0  0  0  0  0  0  0  0  0
   -4.7336   -1.5717    2.1916 H   0  0  0  0  0  0  0  0  0  0  0  0
   -2.0199    1.8529   -1.0424 H   0  0  0  0  0  0  0  0  0  0  0  0
   -2.9887    0.4512   -1.5408 H   0  0  0  0  0  0  0  0  0  0  0  0
   -3.2000    3.0635    1.2099 H   0  0  0  0  0  0  0  0  0  0  0  0
   -7.2861    3.9172    0.1916 H   0  0  0  0  0  0  0  0  0  0  0  0
   -5.2165    1.0359   -2.0082 H   0  0  0  0  0  0  0  0  0  0  0  0
   -3.4371   -3.6696    0.8389 H   0  0  0  0  0  0  0  0  0  0  0  0
   -3.4037   -2.2518   -1.1467 H   0  0  0  0  0  0  0  0  0  0  0  0
   -4.7807   -3.3498   -1.3234 H   0  0  0  0  0  0  0  0  0  0  0  0
   -6.1016   -1.6266   -0.3269 H   0  0  0  0  0  0  0  0  0  0  0  0
  1  2  2  0
  1  6  1  0
  2  3  1  0
  3  4  2  0
  4  5  1  0
  4  7  1  0
  5  6  2  0
  7  8  2  0
  7 12  1  0
  8  9  1  0
  9 10  2  0
 10 11  1  0
 11 12  2  0
 11 14  1  0
 12 13  1  0
 14 15  1  0
 15 16  1  0
 16 17  2  0
 16 21  1  0
 17 18  1  0
 18 19  2  0
 18 25  1  0
 19 20  1  0
 19 23  1  0
 20 21  2  0
 21 22  1  0
 23 24  1  0
 24 33  1  0
 25 26  1  0
 26 27  1  0
 27 28  2  0
 27 32  1  0
 28 29  1  0
 29 30  2  0
 29 39  1  0
 30 31  1  0
 31 32  2  0
 33 34  1  0
 33 37  1  0
 34 35  1  0
 34 36  2  0
 37 38  1  0
 39 40  3  0
  1 41  1  0
  2 42  1  0
  3 43  1  0
  5 44  1  0
  6 45  1  0
  8 46  1  0
  9 47  1  0
 10 48  1  0
 13 49  1  0
 13 50  1  0
 13 51  1  0
 14 52  1  0
 14 53  1  0
 15 54  1  0
 17 55  1  0
 20 56  1  0
 22 57  1  0
 22 58  1  0
 22 59  1  0
 23 60  1  0
 23 61  1  0
 24 62  1  0
 24 63  1  0
 26 64  1  0
 26 65  1  0
 28 66  1  0
 30 67  1  0
 32 68  1  0
 33 69  1  6
 37 70  1  0
 37 71  1  0
 38 72  1  0
M  CHG  2  24   1  35  -1
M  END
>  <%C>  (1) 
98.790520000000001

>  <mol_id>  (1) 
4

>  <isomer_id>  (1) 
1

>  <CID>  (1) 
10

>  <Energy>  (1) 
87.06028951720414

$$$$
