PD1-PDL1.sdf
     RDKit          3D

 72 75  0  0  0  0  0  0  0  0999 V2000
    3.6150    2.9900   -3.8342 C   0  0  0  0  0  0  0  0  0  0  0  0
    2.6962    3.2536   -2.8138 C   0  0  0  0  0  0  0  0  0  0  0  0
    2.8260    2.6154   -1.5761 C   0  0  0  0  0  0  0  0  0  0  0  0
    3.8685    1.7055   -1.3467 C   0  0  0  0  0  0  0  0  0  0  0  0
    4.7929    1.4576   -2.3716 C   0  0  0  0  0  0  0  0  0  0  0  0
    4.6650    2.0929   -3.6123 C   0  0  0  0  0  0  0  0  0  0  0  0
    3.9986    1.0314   -0.0477 C   0  0  0  0  0  0  0  0  0  0  0  0
    5.1212    1.3328    0.7324 C   0  0  0  0  0  0  0  0  0  0  0  0
    5.2872    0.7623    1.9913 C   0  0  0  0  0  0  0  0  0  0  0  0
    4.3279   -0.1199    2.4821 C   0  0  0  0  0  0  0  0  0  0  0  0
    3.1990   -0.4605    1.7197 C   0  0  0  0  0  0  0  0  0  0  0  0
    3.0310    0.1118    0.4296 C   0  0  0  0  0  0  0  0  0  0  0  0
    1.8464   -0.2418   -0.4541 C   0  0  0  0  0  0  0  0  0  0  0  0
    2.2055   -1.4217    2.3333 C   0  0  0  0  0  0  0  0  0  0  0  0
    1.0082   -0.6551    2.7111 N   0  0  0  0  0  0  0  0  0  0  0  0
   -0.2553   -1.1051    2.3381 C   0  0  0  0  0  0  0  0  0  0  0  0
   -1.0302   -0.2319    1.5791 C   0  0  0  0  0  0  0  0  0  0  0  0
   -2.2917   -0.6044    1.1045 C   0  0  0  0  0  0  0  0  0  0  0  0
   -2.7997   -1.8674    1.4354 C   0  0  0  0  0  0  0  0  0  0  0  0
   -2.0393   -2.7382    2.2270 C   0  0  0  0  0  0  0  0  0  0  0  0
   -0.7674   -2.3711    2.6872 C   0  0  0  0  0  0  0  0  0  0  0  0
   -0.0015   -3.3391    3.5585 C   0  0  0  0  0  0  0  0  0  0  0  0
   -4.1421   -2.2913    0.9116 C   0  0  0  0  0  0  0  0  0  0  0  0
   -3.9488   -3.2464   -0.1962 N   0  0  0  0  0  4  0  0  0  0  0  0
   -3.0528    0.2282    0.3217 O   0  0  0  0  0  0  0  0  0  0  0  0
   -2.4007    0.7993   -0.8285 C   0  0  0  0  0  0  0  0  0  0  0  0
   -1.9218    2.2059   -0.5615 C   0  0  0  0  0  0  0  0  0  0  0  0
   -2.4895    3.0032    0.4389 C   0  0  0  0  0  0  0  0  0  0  0  0
   -1.9935    4.2920    0.6258 C   0  0  0  0  0  0  0  0  0  0  0  0
   -0.9552    4.7443   -0.1916 C   0  0  0  0  0  0  0  0  0  0  0  0
   -0.4137    3.9838   -1.1592 N   0  0  0  0  0  0  0  0  0  0  0  0
   -0.8913    2.7422   -1.3440 C   0  0  0  0  0  0  0  0  0  0  0  0
   -3.1932   -2.7028   -1.3726 C   0  0  1  0  0  0  0  0  0  0  0  0
   -2.3917   -3.8199   -2.0738 C   0  0  0  0  0  0  0  0  0  0  0  0
   -2.3011   -4.8909   -1.4194 O   0  0  0  0  0  1  0  0  0  0  0  0
   -1.9332   -3.6213   -3.2265 O   0  0  0  0  0  0  0  0  0  0  0  0
   -4.1048   -1.9771   -2.3637 C   0  0  0  0  0  0  0  0  0  0  0  0
   -3.2799   -1.3443   -3.3374 O   0  0  0  0  0  0  0  0  0  0  0  0
   -2.5309    5.1470    1.6361 C   0  0  0  0  0  0  0  0  0  0  0  0
   -2.9680    5.8448    2.4596 N   0  0  0  0  0  0  0  0  0  0  0  0
    3.5144    3.4834   -4.7965 H   0  0  0  0  0  0  0  0  0  0  0  0
    1.8821    3.9547   -2.9767 H   0  0  0  0  0  0  0  0  0  0  0  0
    2.1177    2.8338   -0.7832 H   0  0  0  0  0  0  0  0  0  0  0  0
    5.6054    0.7566   -2.2056 H   0  0  0  0  0  0  0  0  0  0  0  0
    5.3796    1.8867   -4.4036 H   0  0  0  0  0  0  0  0  0  0  0  0
    5.8623    2.0340    0.3594 H   0  0  0  0  0  0  0  0  0  0  0  0
    6.1581    1.0113    2.5907 H   0  0  0  0  0  0  0  0  0  0  0  0
    4.4695   -0.5438    3.4722 H   0  0  0  0  0  0  0  0  0  0  0  0
    2.1606   -0.3391   -1.4978 H   0  0  0  0  0  0  0  0  0  0  0  0
    1.3833   -1.1892   -0.1745 H   0  0  0  0  0  0  0  0  0  0  0  0
    1.0894    0.5432   -0.3903 H   0  0  0  0  0  0  0  0  0  0  0  0
    2.6311   -1.8978    3.2229 H   0  0  0  0  0  0  0  0  0  0  0  0
    1.9717   -2.2231    1.6249 H   0  0  0  0  0  0  0  0  0  0  0  0
    1.1382    0.3507    2.6128 H   0  0  0  0  0  0  0  0  0  0  0  0
   -0.6376    0.7494    1.3447 H   0  0  0  0  0  0  0  0  0  0  0  0
   -2.4343   -3.7160    2.4866 H   0  0  0  0  0  0  0  0  0  0  0  0
    0.7189   -3.9007    2.9567 H   0  0  0  0  0  0  0  0  0  0  0  0
   -0.6783   -4.0516    4.0396 H   0  0  0  0  0  0  0  0  0  0  0  0
    0.5357   -2.8032    4.3471 H   0  0  0  0  0  0  0  0  0  0  0  0
   -4.7220   -2.7443    1.7243 H   0  0  0  0  0  0  0  0  0  0  0  0
   -4.6933   -1.4082    0.5654 H   0  0  0  0  0  0  0  0  0  0  0  0
   -3.3969   -4.0535    0.1324 H   0  0  0  0  0  0  0  0  0  0  0  0
   -4.8496   -3.6018   -0.5143 H   0  0  0  0  0  0  0  0  0  0  0  0
   -3.1167    0.8271   -1.6563 H   0  0  0  0  0  0  0  0  0  0  0  0
   -1.5638    0.1690   -1.1534 H   0  0  0  0  0  0  0  0  0  0  0  0
   -3.2980    2.6290    1.0645 H   0  0  0  0  0  0  0  0  0  0  0  0
   -0.5663    5.7479   -0.0444 H   0  0  0  0  0  0  0  0  0  0  0  0
   -0.4519    2.1329   -2.1289 H   0  0  0  0  0  0  0  0  0  0  0  0
   -2.4491   -1.9847   -1.0207 H   0  0  0  0  0  0  0  0  0  0  0  0
   -4.7833   -2.6880   -2.8475 H   0  0  0  0  0  0  0  0  0  0  0  0
   -4.7082   -1.2235   -1.8481 H   0  0  0  0  0  0  0  0  0  0  0  0
   -2.6603   -2.0350   -3.6940 H   0  0  0  0  0  0  0  0  0  0  0  0
  1  2  2  0
  1  6  1  0
  2  3  1  0
  3  4  2  0
  4  5  1  0
  4  7  1  0
  5  6  2  0
  7  8  2  0
  7 12  1  0
  8  9  1  0
  9 10  2  0
 10 11  1  0
 11 12  2  0
 11 14  1  0
 12 13  1  0
 14 15  1  0
 15 16  1  0
 16 17  2  0
 16 21  1  0
 17 18  1  0
 18 19  2  0
 18 25  1  0
 19 20  1  0
 19 23  1  0
 20 21  2  0
 21 22  1  0
 23 24  1  0
 24 33  1  0
 25 26  1  0
 26 27  1  0
 27 28  2  0
 27 32  1  0
 28 29  1  0
 29 30  2  0
 29 39  1  0
 30 31  1  0
 31 32  2  0
 33 34  1  0
 33 37  1  0
 34 35  1  0
 34 36  2  0
 37 38  1  0
 39 40  3  0
  1 41  1  0
  2 42  1  0
  3 43  1  0
  5 44  1  0
  6 45  1  0
  8 46  1  0
  9 47  1  0
 10 48  1  0
 13 49  1  0
 13 50  1  0
 13 51  1  0
 14 52  1  0
 14 53  1  0
 15 54  1  0
 17 55  1  0
 20 56  1  0
 22 57  1  0
 22 58  1  0
 22 59  1  0
 23 60  1  0
 23 61  1  0
 24 62  1  0
 24 63  1  0
 26 64  1  0
 26 65  1  0
 28 66  1  0
 30 67  1  0
 32 68  1  0
 33 69  1  1
 37 70  1  0
 37 71  1  0
 38 72  1  0
M  CHG  2  24   1  35  -1
M  END
>  <%C>  (1) 
98.790520000000001

>  <mol_id>  (1) 
4

>  <isomer_id>  (1) 
1

>  <CID>  (1) 
10

>  <Energy>  (1) 
87.06028951720414

$$$$
