PD1-PDL1.sdf
     RDKit          3D

 72 75  0  0  0  0  0  0  0  0999 V2000
    8.8976    0.5876    1.8272 C   0  0  0  0  0  0  0  0  0  0  0  0
    7.9630   -0.4302    1.6126 C   0  0  0  0  0  0  0  0  0  0  0  0
    6.9083   -0.2333    0.7143 C   0  0  0  0  0  0  0  0  0  0  0  0
    6.7740    0.9833    0.0274 C   0  0  0  0  0  0  0  0  0  0  0  0
    7.7221    1.9946    0.2436 C   0  0  0  0  0  0  0  0  0  0  0  0
    8.7774    1.8005    1.1418 C   0  0  0  0  0  0  0  0  0  0  0  0
    5.6863    1.1833   -0.9412 C   0  0  0  0  0  0  0  0  0  0  0  0
    6.0577    1.3656   -2.2799 C   0  0  0  0  0  0  0  0  0  0  0  0
    5.0982    1.5241   -3.2759 C   0  0  0  0  0  0  0  0  0  0  0  0
    3.7473    1.5073   -2.9411 C   0  0  0  0  0  0  0  0  0  0  0  0
    3.3383    1.3480   -1.6086 C   0  0  0  0  0  0  0  0  0  0  0  0
    4.3109    1.1847   -0.5880 C   0  0  0  0  0  0  0  0  0  0  0  0
    3.8592    1.0371    0.8553 C   0  0  0  0  0  0  0  0  0  0  0  0
    1.8541    1.3342   -1.3262 C   0  0  0  0  0  0  0  0  0  0  0  0
    1.4271   -0.0704   -1.2952 N   0  0  0  0  0  0  0  0  0  0  0  0
    0.1417   -0.5327   -1.0139 C   0  0  0  0  0  0  0  0  0  0  0  0
   -0.8994    0.3563   -0.7243 C   0  0  0  0  0  0  0  0  0  0  0  0
   -2.1959   -0.1030   -0.4353 C   0  0  0  0  0  0  0  0  0  0  0  0
   -2.4345   -1.4829   -0.4440 C   0  0  0  0  0  0  0  0  0  0  0  0
   -1.3957   -2.3789   -0.7278 C   0  0  0  0  0  0  0  0  0  0  0  0
   -0.1067   -1.9155   -1.0168 C   0  0  0  0  0  0  0  0  0  0  0  0
    0.9888   -2.9118   -1.3215 C   0  0  0  0  0  0  0  0  0  0  0  0
   -3.7975   -2.0205   -0.1411 C   0  0  0  0  0  0  0  0  0  0  0  0
   -3.7517   -2.4308    1.2628 N   0  0  0  0  0  4  0  0  0  0  0  0
   -3.2583    0.7133   -0.1172 O   0  0  0  0  0  0  0  0  0  0  0  0
   -3.1165    2.1252   -0.3147 C   0  0  0  0  0  0  0  0  0  0  0  0
   -4.4376    2.7660    0.0006 C   0  0  0  0  0  0  0  0  0  0  0  0
   -5.3920    2.9787   -0.9974 C   0  0  0  0  0  0  0  0  0  0  0  0
   -6.6029    3.5720   -0.6414 C   0  0  0  0  0  0  0  0  0  0  0  0
   -6.8194    3.9267    0.6932 C   0  0  0  0  0  0  0  0  0  0  0  0
   -5.9032    3.7150    1.6545 N   0  0  0  0  0  0  0  0  0  0  0  0
   -4.7378    3.1423    1.3157 C   0  0  0  0  0  0  0  0  0  0  0  0
   -4.6694   -3.5713    1.5732 C   0  0  1  0  0  0  0  0  0  0  0  0
   -3.8698   -4.8839    1.7333 C   0  0  0  0  0  0  0  0  0  0  0  0
   -4.4838   -5.9335    2.0440 O   0  0  0  0  0  1  0  0  0  0  0  0
   -2.6246   -4.7780    1.5770 O   0  0  0  0  0  0  0  0  0  0  0  0
   -5.4630   -3.3223    2.8565 C   0  0  0  0  0  0  0  0  0  0  0  0
   -6.4233   -4.3647    2.9967 O   0  0  0  0  0  0  0  0  0  0  0  0
   -7.6160    3.8194   -1.6180 C   0  0  0  0  0  0  0  0  0  0  0  0
   -8.4394    4.0217   -2.4159 N   0  0  0  0  0  0  0  0  0  0  0  0
    9.7180    0.4351    2.5225 H   0  0  0  0  0  0  0  0  0  0  0  0
    8.0576   -1.3749    2.1399 H   0  0  0  0  0  0  0  0  0  0  0  0
    6.1901   -1.0295    0.5426 H   0  0  0  0  0  0  0  0  0  0  0  0
    7.6324    2.9386   -0.2857 H   0  0  0  0  0  0  0  0  0  0  0  0
    9.5029    2.5918    1.3058 H   0  0  0  0  0  0  0  0  0  0  0  0
    7.1101    1.3640   -2.5490 H   0  0  0  0  0  0  0  0  0  0  0  0
    5.4043    1.6502   -4.3104 H   0  0  0  0  0  0  0  0  0  0  0  0
    3.0096    1.6177   -3.7310 H   0  0  0  0  0  0  0  0  0  0  0  0
    3.2541    0.1329    0.9692 H   0  0  0  0  0  0  0  0  0  0  0  0
    4.6940    0.9741    1.5553 H   0  0  0  0  0  0  0  0  0  0  0  0
    3.2614    1.9024    1.1539 H   0  0  0  0  0  0  0  0  0  0  0  0
    1.6329    1.8326   -0.3777 H   0  0  0  0  0  0  0  0  0  0  0  0
    1.3166    1.8740   -2.1138 H   0  0  0  0  0  0  0  0  0  0  0  0
    2.1431   -0.7682   -1.4930 H   0  0  0  0  0  0  0  0  0  0  0  0
   -0.6822    1.4142   -0.7198 H   0  0  0  0  0  0  0  0  0  0  0  0
   -1.5906   -3.4503   -0.7152 H   0  0  0  0  0  0  0  0  0  0  0  0
    1.7911   -2.8311   -0.5815 H   0  0  0  0  0  0  0  0  0  0  0  0
    1.4048   -2.7246   -2.3164 H   0  0  0  0  0  0  0  0  0  0  0  0
    0.6075   -3.9377   -1.2996 H   0  0  0  0  0  0  0  0  0  0  0  0
   -4.5662   -1.2574   -0.3142 H   0  0  0  0  0  0  0  0  0  0  0  0
   -4.0149   -2.8742   -0.7947 H   0  0  0  0  0  0  0  0  0  0  0  0
   -2.7956   -2.7750    1.4517 H   0  0  0  0  0  0  0  0  0  0  0  0
   -3.9379   -1.6295    1.8636 H   0  0  0  0  0  0  0  0  0  0  0  0
   -2.3409    2.5309    0.3441 H   0  0  0  0  0  0  0  0  0  0  0  0
   -2.8318    2.3420   -1.3506 H   0  0  0  0  0  0  0  0  0  0  0  0
   -5.2007    2.6877   -2.0285 H   0  0  0  0  0  0  0  0  0  0  0  0
   -7.7617    4.3902    0.9712 H   0  0  0  0  0  0  0  0  0  0  0  0
   -4.0013    2.9689    2.0948 H   0  0  0  0  0  0  0  0  0  0  0  0
   -5.3827   -3.7202    0.7577 H   0  0  0  0  0  0  0  0  0  0  0  0
   -4.7911   -3.3077    3.7215 H   0  0  0  0  0  0  0  0  0  0  0  0
   -5.9783   -2.3577    2.8077 H   0  0  0  0  0  0  0  0  0  0  0  0
   -5.9681   -5.2321    2.8348 H   0  0  0  0  0  0  0  0  0  0  0  0
  1  2  2  0
  1  6  1  0
  2  3  1  0
  3  4  2  0
  4  5  1  0
  4  7  1  0
  5  6  2  0
  7  8  2  0
  7 12  1  0
  8  9  1  0
  9 10  2  0
 10 11  1  0
 11 12  2  0
 11 14  1  0
 12 13  1  0
 14 15  1  0
 15 16  1  0
 16 17  2  0
 16 21  1  0
 17 18  1  0
 18 19  2  0
 18 25  1  0
 19 20  1  0
 19 23  1  0
 20 21  2  0
 21 22  1  0
 23 24  1  0
 24 33  1  0
 25 26  1  0
 26 27  1  0
 27 28  2  0
 27 32  1  0
 28 29  1  0
 29 30  2  0
 29 39  1  0
 30 31  1  0
 31 32  2  0
 33 34  1  0
 33 37  1  0
 34 35  1  0
 34 36  2  0
 37 38  1  0
 39 40  3  0
  1 41  1  0
  2 42  1  0
  3 43  1  0
  5 44  1  0
  6 45  1  0
  8 46  1  0
  9 47  1  0
 10 48  1  0
 13 49  1  0
 13 50  1  0
 13 51  1  0
 14 52  1  0
 14 53  1  0
 15 54  1  0
 17 55  1  0
 20 56  1  0
 22 57  1  0
 22 58  1  0
 22 59  1  0
 23 60  1  0
 23 61  1  0
 24 62  1  0
 24 63  1  0
 26 64  1  0
 26 65  1  0
 28 66  1  0
 30 67  1  0
 32 68  1  0
 33 69  1  6
 37 70  1  0
 37 71  1  0
 38 72  1  0
M  CHG  2  24   1  35  -1
M  END
>  <%C>  (1) 
98.790520000000001

>  <mol_id>  (1) 
4

>  <isomer_id>  (1) 
1

>  <CID>  (1) 
10

>  <Energy>  (1) 
87.06028951720414

$$$$
