PD1-PDL1.sdf
     RDKit          3D

 72 75  0  0  0  0  0  0  0  0999 V2000
    8.5066    2.8182    1.2065 C   0  0  0  0  0  0  0  0  0  0  0  0
    7.4583    3.6504    0.8028 C   0  0  0  0  0  0  0  0  0  0  0  0
    6.3844    3.1215    0.0781 C   0  0  0  0  0  0  0  0  0  0  0  0
    6.3408    1.7550   -0.2442 C   0  0  0  0  0  0  0  0  0  0  0  0
    7.4054    0.9326    0.1578 C   0  0  0  0  0  0  0  0  0  0  0  0
    8.4810    1.4588    0.8818 C   0  0  0  0  0  0  0  0  0  0  0  0
    5.2196    1.1916   -1.0174 C   0  0  0  0  0  0  0  0  0  0  0  0
    5.5321    0.5238   -2.2102 C   0  0  0  0  0  0  0  0  0  0  0  0
    4.5322   -0.0140   -3.0153 C   0  0  0  0  0  0  0  0  0  0  0  0
    3.1989    0.1149   -2.6385 C   0  0  0  0  0  0  0  0  0  0  0  0
    2.8465    0.7745   -1.4519 C   0  0  0  0  0  0  0  0  0  0  0  0
    3.8625    1.3027   -0.6135 C   0  0  0  0  0  0  0  0  0  0  0  0
    3.4995    1.9600    0.7070 C   0  0  0  0  0  0  0  0  0  0  0  0
    1.3777    0.8781   -1.1172 C   0  0  0  0  0  0  0  0  0  0  0  0
    1.0516   -0.2286   -0.2074 N   0  0  0  0  0  0  0  0  0  0  0  0
   -0.2208   -0.7576    0.0114 C   0  0  0  0  0  0  0  0  0  0  0  0
   -1.3685   -0.1103   -0.4594 C   0  0  0  0  0  0  0  0  0  0  0  0
   -2.6522   -0.6392   -0.2413 C   0  0  0  0  0  0  0  0  0  0  0  0
   -2.7651   -1.8465    0.4611 C   0  0  0  0  0  0  0  0  0  0  0  0
   -1.6227   -2.5003    0.9354 C   0  0  0  0  0  0  0  0  0  0  0  0
   -0.3480   -1.9616    0.7243 C   0  0  0  0  0  0  0  0  0  0  0  0
    0.8626   -2.6858    1.2667 C   0  0  0  0  0  0  0  0  0  0  0  0
   -4.1056   -2.4607    0.7078 C   0  0  0  0  0  0  0  0  0  0  0  0
   -4.4437   -3.1734   -0.5280 N   0  0  0  0  0  4  0  0  0  0  0  0
   -3.8267   -0.0673   -0.6876 O   0  0  0  0  0  0  0  0  0  0  0  0
   -3.8215    1.2830   -1.1834 C   0  0  0  0  0  0  0  0  0  0  0  0
   -3.5269    2.2664   -0.0767 C   0  0  0  0  0  0  0  0  0  0  0  0
   -2.5834    3.2842   -0.2453 C   0  0  0  0  0  0  0  0  0  0  0  0
   -2.3416    4.1502    0.8203 C   0  0  0  0  0  0  0  0  0  0  0  0
   -3.0563    3.9815    2.0099 C   0  0  0  0  0  0  0  0  0  0  0  0
   -3.9710    3.0100    2.1698 N   0  0  0  0  0  0  0  0  0  0  0  0
   -4.1985    2.1665    1.1504 C   0  0  0  0  0  0  0  0  0  0  0  0
   -5.5866   -4.1436   -0.4178 C   0  0  1  0  0  0  0  0  0  0  0  0
   -5.1190   -5.5054    0.1495 C   0  0  0  0  0  0  0  0  0  0  0  0
   -5.9796   -6.3460    0.5109 O   0  0  0  0  0  1  0  0  0  0  0  0
   -3.8718   -5.6671    0.1967 O   0  0  0  0  0  0  0  0  0  0  0  0
   -6.7746   -3.6083    0.3935 C   0  0  0  0  0  0  0  0  0  0  0  0
   -7.8675   -4.5039    0.2234 O   0  0  0  0  0  0  0  0  0  0  0  0
   -1.3755    5.1966    0.7081 C   0  0  0  0  0  0  0  0  0  0  0  0
   -0.5844    6.0448    0.6065 N   0  0  0  0  0  0  0  0  0  0  0  0
    9.3407    3.2276    1.7689 H   0  0  0  0  0  0  0  0  0  0  0  0
    7.4789    4.7083    1.0474 H   0  0  0  0  0  0  0  0  0  0  0  0
    5.5822    3.7779   -0.2453 H   0  0  0  0  0  0  0  0  0  0  0  0
    7.3921   -0.1255   -0.0858 H   0  0  0  0  0  0  0  0  0  0  0  0
    9.2958    0.8105    1.1908 H   0  0  0  0  0  0  0  0  0  0  0  0
    6.5681    0.4369   -2.5243 H   0  0  0  0  0  0  0  0  0  0  0  0
    4.7918   -0.5238   -3.9385 H   0  0  0  0  0  0  0  0  0  0  0  0
    2.4297   -0.3069   -3.2792 H   0  0  0  0  0  0  0  0  0  0  0  0
    3.2818    3.0200    0.5489 H   0  0  0  0  0  0  0  0  0  0  0  0
    4.3132    1.8731    1.4323 H   0  0  0  0  0  0  0  0  0  0  0  0
    2.6256    1.4883    1.1625 H   0  0  0  0  0  0  0  0  0  0  0  0
    0.7892    0.8068   -2.0382 H   0  0  0  0  0  0  0  0  0  0  0  0
    1.1506    1.8435   -0.6529 H   0  0  0  0  0  0  0  0  0  0  0  0
    1.8409   -0.7940    0.1025 H   0  0  0  0  0  0  0  0  0  0  0  0
   -1.2470    0.8182   -0.9959 H   0  0  0  0  0  0  0  0  0  0  0  0
   -1.7291   -3.4416    1.4716 H   0  0  0  0  0  0  0  0  0  0  0  0
    0.5705   -3.5804    1.8254 H   0  0  0  0  0  0  0  0  0  0  0  0
    1.5189   -2.9936    0.4469 H   0  0  0  0  0  0  0  0  0  0  0  0
    1.4225   -2.0313    1.9422 H   0  0  0  0  0  0  0  0  0  0  0  0
   -4.8450   -1.6855    0.9413 H   0  0  0  0  0  0  0  0  0  0  0  0
   -4.0556   -3.1534    1.5577 H   0  0  0  0  0  0  0  0  0  0  0  0
   -4.6118   -2.4918   -1.2677 H   0  0  0  0  0  0  0  0  0  0  0  0
   -3.6160   -3.7347   -0.7735 H   0  0  0  0  0  0  0  0  0  0  0  0
   -4.8109    1.5073   -1.5956 H   0  0  0  0  0  0  0  0  0  0  0  0
   -3.1075    1.3877   -2.0071 H   0  0  0  0  0  0  0  0  0  0  0  0
   -2.0393    3.4028   -1.1800 H   0  0  0  0  0  0  0  0  0  0  0  0
   -2.8722    4.6583    2.8395 H   0  0  0  0  0  0  0  0  0  0  0  0
   -4.9318    1.3775    1.2888 H   0  0  0  0  0  0  0  0  0  0  0  0
   -5.9636   -4.3577   -1.4218 H   0  0  0  0  0  0  0  0  0  0  0  0
   -6.5152   -3.5393    1.4554 H   0  0  0  0  0  0  0  0  0  0  0  0
   -7.0590   -2.6113    0.0427 H   0  0  0  0  0  0  0  0  0  0  0  0
   -7.5366   -5.4202    0.4161 H   0  0  0  0  0  0  0  0  0  0  0  0
  1  2  2  0
  1  6  1  0
  2  3  1  0
  3  4  2  0
  4  5  1  0
  4  7  1  0
  5  6  2  0
  7  8  2  0
  7 12  1  0
  8  9  1  0
  9 10  2  0
 10 11  1  0
 11 12  2  0
 11 14  1  0
 12 13  1  0
 14 15  1  0
 15 16  1  0
 16 17  2  0
 16 21  1  0
 17 18  1  0
 18 19  2  0
 18 25  1  0
 19 20  1  0
 19 23  1  0
 20 21  2  0
 21 22  1  0
 23 24  1  0
 24 33  1  0
 25 26  1  0
 26 27  1  0
 27 28  2  0
 27 32  1  0
 28 29  1  0
 29 30  2  0
 29 39  1  0
 30 31  1  0
 31 32  2  0
 33 34  1  0
 33 37  1  0
 34 35  1  0
 34 36  2  0
 37 38  1  0
 39 40  3  0
  1 41  1  0
  2 42  1  0
  3 43  1  0
  5 44  1  0
  6 45  1  0
  8 46  1  0
  9 47  1  0
 10 48  1  0
 13 49  1  0
 13 50  1  0
 13 51  1  0
 14 52  1  0
 14 53  1  0
 15 54  1  0
 17 55  1  0
 20 56  1  0
 22 57  1  0
 22 58  1  0
 22 59  1  0
 23 60  1  0
 23 61  1  0
 24 62  1  0
 24 63  1  0
 26 64  1  0
 26 65  1  0
 28 66  1  0
 30 67  1  0
 32 68  1  0
 33 69  1  6
 37 70  1  0
 37 71  1  0
 38 72  1  0
M  CHG  2  24   1  35  -1
M  END
>  <%C>  (1) 
98.790520000000001

>  <mol_id>  (1) 
4

>  <isomer_id>  (1) 
1

>  <CID>  (1) 
10

>  <Energy>  (1) 
87.06028951720414

$$$$
