PD1-PDL1.sdf
     RDKit          3D

 72 75  0  0  0  0  0  0  0  0999 V2000
    5.8636    0.0052   -4.1014 C   0  0  0  0  0  0  0  0  0  0  0  0
    6.4453   -0.4261   -2.9056 C   0  0  0  0  0  0  0  0  0  0  0  0
    6.0226    0.1150   -1.6864 C   0  0  0  0  0  0  0  0  0  0  0  0
    5.0103    1.0871   -1.6475 C   0  0  0  0  0  0  0  0  0  0  0  0
    4.4417    1.5196   -2.8565 C   0  0  0  0  0  0  0  0  0  0  0  0
    4.8620    0.9799   -4.0767 C   0  0  0  0  0  0  0  0  0  0  0  0
    4.5783    1.6615   -0.3613 C   0  0  0  0  0  0  0  0  0  0  0  0
    5.5617    2.2532    0.4446 C   0  0  0  0  0  0  0  0  0  0  0  0
    5.2321    2.8490    1.6592 C   0  0  0  0  0  0  0  0  0  0  0  0
    3.9061    2.8657    2.0823 C   0  0  0  0  0  0  0  0  0  0  0  0
    2.8958    2.2811    1.3048 C   0  0  0  0  0  0  0  0  0  0  0  0
    3.2281    1.6486    0.0784 C   0  0  0  0  0  0  0  0  0  0  0  0
    2.1543    0.9508   -0.7397 C   0  0  0  0  0  0  0  0  0  0  0  0
    1.4848    2.3342    1.8381 C   0  0  0  0  0  0  0  0  0  0  0  0
    1.2963    1.1216    2.6469 N   0  0  0  0  0  0  0  0  0  0  0  0
    0.2009    0.2786    2.4795 C   0  0  0  0  0  0  0  0  0  0  0  0
   -1.0722    0.8076    2.2641 C   0  0  0  0  0  0  0  0  0  0  0  0
   -2.1815   -0.0259    2.0737 C   0  0  0  0  0  0  0  0  0  0  0  0
   -2.0089   -1.4196    2.1512 C   0  0  0  0  0  0  0  0  0  0  0  0
   -0.7333   -1.9505    2.3793 C   0  0  0  0  0  0  0  0  0  0  0  0
    0.3787   -1.1130    2.5368 C   0  0  0  0  0  0  0  0  0  0  0  0
    1.7468   -1.7167    2.7548 C   0  0  0  0  0  0  0  0  0  0  0  0
   -3.1796   -2.3509    2.0010 C   0  0  0  0  0  0  0  0  0  0  0  0
   -3.7372   -2.1173    0.6697 N   0  0  0  0  0  4  0  0  0  0  0  0
   -3.4447    0.4571    1.8198 O   0  0  0  0  0  0  0  0  0  0  0  0
   -3.6068    1.6044    0.9648 C   0  0  0  0  0  0  0  0  0  0  0  0
   -3.0114    1.3415   -0.4003 C   0  0  0  0  0  0  0  0  0  0  0  0
   -3.6493    0.4964   -1.3122 C   0  0  0  0  0  0  0  0  0  0  0  0
   -3.0067    0.2123   -2.5169 C   0  0  0  0  0  0  0  0  0  0  0  0
   -1.7784    0.8190   -2.7908 C   0  0  0  0  0  0  0  0  0  0  0  0
   -1.1805    1.6623   -1.9317 N   0  0  0  0  0  0  0  0  0  0  0  0
   -1.7860    1.9161   -0.7609 C   0  0  0  0  0  0  0  0  0  0  0  0
   -4.9767   -2.8892    0.3615 C   0  0  1  0  0  0  0  0  0  0  0  0
   -6.2652   -2.1178    0.6951 C   0  0  0  0  0  0  0  0  0  0  0  0
   -7.2941   -2.7628    0.9894 O   0  0  0  0  0  1  0  0  0  0  0  0
   -6.1733   -0.8633    0.6428 O   0  0  0  0  0  0  0  0  0  0  0  0
   -5.0088   -3.1892   -1.1386 C   0  0  0  0  0  0  0  0  0  0  0  0
   -3.6731   -3.4140   -1.6192 O   0  0  0  0  0  0  0  0  0  0  0  0
   -3.5641   -0.7147   -3.4501 C   0  0  0  0  0  0  0  0  0  0  0  0
   -3.9914   -1.5109   -4.1854 N   0  0  0  0  0  0  0  0  0  0  0  0
    6.1925   -0.4132   -5.0482 H   0  0  0  0  0  0  0  0  0  0  0  0
    7.2258   -1.1810   -2.9223 H   0  0  0  0  0  0  0  0  0  0  0  0
    6.4761   -0.2290   -0.7618 H   0  0  0  0  0  0  0  0  0  0  0  0
    3.6730    2.2864   -2.8460 H   0  0  0  0  0  0  0  0  0  0  0  0
    4.4128    1.3223   -5.0042 H   0  0  0  0  0  0  0  0  0  0  0  0
    6.5952    2.2660    0.1108 H   0  0  0  0  0  0  0  0  0  0  0  0
    6.0056    3.3083    2.2682 H   0  0  0  0  0  0  0  0  0  0  0  0
    3.6612    3.3380    3.0298 H   0  0  0  0  0  0  0  0  0  0  0  0
    2.5752    0.1515   -1.3553 H   0  0  0  0  0  0  0  0  0  0  0  0
    1.4027    0.4844   -0.0991 H   0  0  0  0  0  0  0  0  0  0  0  0
    1.6572    1.6722   -1.3944 H   0  0  0  0  0  0  0  0  0  0  0  0
    1.3391    3.2263    2.4568 H   0  0  0  0  0  0  0  0  0  0  0  0
    0.7709    2.3957    1.0116 H   0  0  0  0  0  0  0  0  0  0  0  0
    2.1668    0.6452    2.8768 H   0  0  0  0  0  0  0  0  0  0  0  0
   -1.1975    1.8820    2.2699 H   0  0  0  0  0  0  0  0  0  0  0  0
   -0.6023   -3.0276    2.4336 H   0  0  0  0  0  0  0  0  0  0  0  0
    1.7056   -2.8098    2.7295 H   0  0  0  0  0  0  0  0  0  0  0  0
    2.1437   -1.4114    3.7279 H   0  0  0  0  0  0  0  0  0  0  0  0
    2.4356   -1.3832    1.9718 H   0  0  0  0  0  0  0  0  0  0  0  0
   -3.9275   -2.1307    2.7737 H   0  0  0  0  0  0  0  0  0  0  0  0
   -2.8662   -3.3945    2.1199 H   0  0  0  0  0  0  0  0  0  0  0  0
   -3.9804   -1.1159    0.6229 H   0  0  0  0  0  0  0  0  0  0  0  0
   -3.0408   -2.3269   -0.0493 H   0  0  0  0  0  0  0  0  0  0  0  0
   -4.6791    1.8037    0.8556 H   0  0  0  0  0  0  0  0  0  0  0  0
   -3.1659    2.4954    1.4229 H   0  0  0  0  0  0  0  0  0  0  0  0
   -4.6189    0.0573   -1.0839 H   0  0  0  0  0  0  0  0  0  0  0  0
   -1.2782    0.5968   -3.7293 H   0  0  0  0  0  0  0  0  0  0  0  0
   -1.2934    2.5864   -0.0638 H   0  0  0  0  0  0  0  0  0  0  0  0
   -4.9952   -3.8294    0.9187 H   0  0  0  0  0  0  0  0  0  0  0  0
   -5.4422   -2.3437   -1.6845 H   0  0  0  0  0  0  0  0  0  0  0  0
   -5.6382   -4.0655   -1.3271 H   0  0  0  0  0  0  0  0  0  0  0  0
   -3.6990   -3.5421   -2.5886 H   0  0  0  0  0  0  0  0  0  0  0  0
  1  2  2  0
  1  6  1  0
  2  3  1  0
  3  4  2  0
  4  5  1  0
  4  7  1  0
  5  6  2  0
  7  8  2  0
  7 12  1  0
  8  9  1  0
  9 10  2  0
 10 11  1  0
 11 12  2  0
 11 14  1  0
 12 13  1  0
 14 15  1  0
 15 16  1  0
 16 17  2  0
 16 21  1  0
 17 18  1  0
 18 19  2  0
 18 25  1  0
 19 20  1  0
 19 23  1  0
 20 21  2  0
 21 22  1  0
 23 24  1  0
 24 33  1  0
 25 26  1  0
 26 27  1  0
 27 28  2  0
 27 32  1  0
 28 29  1  0
 29 30  2  0
 29 39  1  0
 30 31  1  0
 31 32  2  0
 33 34  1  0
 33 37  1  0
 34 35  1  0
 34 36  2  0
 37 38  1  0
 39 40  3  0
  1 41  1  0
  2 42  1  0
  3 43  1  0
  5 44  1  0
  6 45  1  0
  8 46  1  0
  9 47  1  0
 10 48  1  0
 13 49  1  0
 13 50  1  0
 13 51  1  0
 14 52  1  0
 14 53  1  0
 15 54  1  0
 17 55  1  0
 20 56  1  0
 22 57  1  0
 22 58  1  0
 22 59  1  0
 23 60  1  0
 23 61  1  0
 24 62  1  0
 24 63  1  0
 26 64  1  0
 26 65  1  0
 28 66  1  0
 30 67  1  0
 32 68  1  0
 33 69  1  1
 37 70  1  0
 37 71  1  0
 38 72  1  0
M  CHG  2  24   1  35  -1
M  END
>  <%C>  (1) 
98.790520000000001

>  <mol_id>  (1) 
4

>  <isomer_id>  (1) 
1

>  <CID>  (1) 
10

>  <Energy>  (1) 
87.06028951720414

$$$$
