PD1-PDL1.sdf
     RDKit          3D

 72 75  0  0  0  0  0  0  0  0999 V2000
    8.4322   -0.2111   -0.7435 C   0  0  0  0  0  0  0  0  0  0  0  0
    7.3725   -0.8660   -0.1094 C   0  0  0  0  0  0  0  0  0  0  0  0
    6.0644   -0.3930   -0.2645 C   0  0  0  0  0  0  0  0  0  0  0  0
    5.8000    0.7425   -1.0480 C   0  0  0  0  0  0  0  0  0  0  0  0
    6.8723    1.3836   -1.6891 C   0  0  0  0  0  0  0  0  0  0  0  0
    8.1815    0.9129   -1.5357 C   0  0  0  0  0  0  0  0  0  0  0  0
    4.4216    1.2365   -1.2258 C   0  0  0  0  0  0  0  0  0  0  0  0
    3.9325    1.3228   -2.5364 C   0  0  0  0  0  0  0  0  0  0  0  0
    2.6302    1.7436   -2.7908 C   0  0  0  0  0  0  0  0  0  0  0  0
    1.7927    2.0782   -1.7304 C   0  0  0  0  0  0  0  0  0  0  0  0
    2.2458    2.0120   -0.4036 C   0  0  0  0  0  0  0  0  0  0  0  0
    3.5834    1.6086   -0.1410 C   0  0  0  0  0  0  0  0  0  0  0  0
    4.1187    1.5864    1.2811 C   0  0  0  0  0  0  0  0  0  0  0  0
    1.2739    2.3845    0.6967 C   0  0  0  0  0  0  0  0  0  0  0  0
    0.9551    1.1936    1.5075 N   0  0  0  0  0  0  0  0  0  0  0  0
   -0.1383    0.3374    1.3516 C   0  0  0  0  0  0  0  0  0  0  0  0
   -1.0055    0.4384    0.2585 C   0  0  0  0  0  0  0  0  0  0  0  0
   -2.1234   -0.4021    0.1220 C   0  0  0  0  0  0  0  0  0  0  0  0
   -2.3575   -1.3649    1.1134 C   0  0  0  0  0  0  0  0  0  0  0  0
   -1.4768   -1.4972    2.1926 C   0  0  0  0  0  0  0  0  0  0  0  0
   -0.3651   -0.6555    2.3208 C   0  0  0  0  0  0  0  0  0  0  0  0
    0.5623   -0.8288    3.5022 C   0  0  0  0  0  0  0  0  0  0  0  0
   -3.5417   -2.2748    1.0232 C   0  0  0  0  0  0  0  0  0  0  0  0
   -3.1650   -3.3183    0.0649 N   0  0  0  0  0  4  0  0  0  0  0  0
   -3.0181   -0.3630   -0.9293 O   0  0  0  0  0  0  0  0  0  0  0  0
   -2.8509    0.6028   -1.9831 C   0  0  0  0  0  0  0  0  0  0  0  0
   -3.1654    2.0074   -1.5211 C   0  0  0  0  0  0  0  0  0  0  0  0
   -4.1693    2.2622   -0.5805 C   0  0  0  0  0  0  0  0  0  0  0  0
   -4.3898    3.5801   -0.1814 C   0  0  0  0  0  0  0  0  0  0  0  0
   -3.6093    4.5972   -0.7368 C   0  0  0  0  0  0  0  0  0  0  0  0
   -2.6496    4.3556   -1.6478 N   0  0  0  0  0  0  0  0  0  0  0  0
   -2.4378    3.0888   -2.0341 C   0  0  0  0  0  0  0  0  0  0  0  0
   -4.1144   -4.4797   -0.0308 C   0  0  1  0  0  0  0  0  0  0  0  0
   -3.8577   -5.5026    1.1029 C   0  0  0  0  0  0  0  0  0  0  0  0
   -2.7398   -5.3942    1.6707 O   0  0  0  0  0  1  0  0  0  0  0  0
   -4.7498   -6.3361    1.4001 O   0  0  0  0  0  0  0  0  0  0  0  0
   -5.5921   -4.0611   -0.0763 C   0  0  0  0  0  0  0  0  0  0  0  0
   -6.3793   -5.2137   -0.3541 O   0  0  0  0  0  0  0  0  0  0  0  0
   -5.3921    3.8993    0.7854 C   0  0  0  0  0  0  0  0  0  0  0  0
   -6.2082    4.1623    1.5732 N   0  0  0  0  0  0  0  0  0  0  0  0
    9.4479   -0.5772   -0.6239 H   0  0  0  0  0  0  0  0  0  0  0  0
    7.5642   -1.7446    0.4996 H   0  0  0  0  0  0  0  0  0  0  0  0
    5.2451   -0.9166    0.2184 H   0  0  0  0  0  0  0  0  0  0  0  0
    6.6881    2.2603   -2.3027 H   0  0  0  0  0  0  0  0  0  0  0  0
    9.0033    1.4212   -2.0315 H   0  0  0  0  0  0  0  0  0  0  0  0
    4.5719    1.0408   -3.3677 H   0  0  0  0  0  0  0  0  0  0  0  0
    2.2687    1.8002   -3.8134 H   0  0  0  0  0  0  0  0  0  0  0  0
    0.7785    2.3961   -1.9480 H   0  0  0  0  0  0  0  0  0  0  0  0
    5.1975    1.7642    1.3014 H   0  0  0  0  0  0  0  0  0  0  0  0
    3.6655    2.3661    1.8964 H   0  0  0  0  0  0  0  0  0  0  0  0
    3.9152    0.6151    1.7403 H   0  0  0  0  0  0  0  0  0  0  0  0
    0.3639    2.8294    0.2818 H   0  0  0  0  0  0  0  0  0  0  0  0
    1.7117    3.1608    1.3316 H   0  0  0  0  0  0  0  0  0  0  0  0
    1.6232    0.9407    2.2314 H   0  0  0  0  0  0  0  0  0  0  0  0
   -0.7935    1.1816   -0.4925 H   0  0  0  0  0  0  0  0  0  0  0  0
   -1.6604   -2.2644    2.9419 H   0  0  0  0  0  0  0  0  0  0  0  0
    0.5985    0.0916    4.0932 H   0  0  0  0  0  0  0  0  0  0  0  0
    0.2245   -1.6400    4.1549 H   0  0  0  0  0  0  0  0  0  0  0  0
    1.5728   -1.0688    3.1566 H   0  0  0  0  0  0  0  0  0  0  0  0
   -3.7698   -2.7074    2.0060 H   0  0  0  0  0  0  0  0  0  0  0  0
   -4.4231   -1.7177    0.6836 H   0  0  0  0  0  0  0  0  0  0  0  0
   -2.2709   -3.7085    0.3949 H   0  0  0  0  0  0  0  0  0  0  0  0
   -3.0208   -2.8873   -0.8483 H   0  0  0  0  0  0  0  0  0  0  0  0
   -1.8347    0.5441   -2.3890 H   0  0  0  0  0  0  0  0  0  0  0  0
   -3.5336    0.3456   -2.7997 H   0  0  0  0  0  0  0  0  0  0  0  0
   -4.7588    1.4507   -0.1580 H   0  0  0  0  0  0  0  0  0  0  0  0
   -3.7788    5.6243   -0.4255 H   0  0  0  0  0  0  0  0  0  0  0  0
   -1.6612    2.8996   -2.7691 H   0  0  0  0  0  0  0  0  0  0  0  0
   -3.9087   -5.0191   -0.9598 H   0  0  0  0  0  0  0  0  0  0  0  0
   -5.7507   -3.3112   -0.8579 H   0  0  0  0  0  0  0  0  0  0  0  0
   -5.8991   -3.6290    0.8822 H   0  0  0  0  0  0  0  0  0  0  0  0
   -6.1187   -5.9148    0.2995 H   0  0  0  0  0  0  0  0  0  0  0  0
  1  2  2  0
  1  6  1  0
  2  3  1  0
  3  4  2  0
  4  5  1  0
  4  7  1  0
  5  6  2  0
  7  8  2  0
  7 12  1  0
  8  9  1  0
  9 10  2  0
 10 11  1  0
 11 12  2  0
 11 14  1  0
 12 13  1  0
 14 15  1  0
 15 16  1  0
 16 17  2  0
 16 21  1  0
 17 18  1  0
 18 19  2  0
 18 25  1  0
 19 20  1  0
 19 23  1  0
 20 21  2  0
 21 22  1  0
 23 24  1  0
 24 33  1  0
 25 26  1  0
 26 27  1  0
 27 28  2  0
 27 32  1  0
 28 29  1  0
 29 30  2  0
 29 39  1  0
 30 31  1  0
 31 32  2  0
 33 34  1  0
 33 37  1  0
 34 35  1  0
 34 36  2  0
 37 38  1  0
 39 40  3  0
  1 41  1  0
  2 42  1  0
  3 43  1  0
  5 44  1  0
  6 45  1  0
  8 46  1  0
  9 47  1  0
 10 48  1  0
 13 49  1  0
 13 50  1  0
 13 51  1  0
 14 52  1  0
 14 53  1  0
 15 54  1  0
 17 55  1  0
 20 56  1  0
 22 57  1  0
 22 58  1  0
 22 59  1  0
 23 60  1  0
 23 61  1  0
 24 62  1  0
 24 63  1  0
 26 64  1  0
 26 65  1  0
 28 66  1  0
 30 67  1  0
 32 68  1  0
 33 69  1  6
 37 70  1  0
 37 71  1  0
 38 72  1  0
M  CHG  2  24   1  35  -1
M  END
>  <%C>  (1) 
98.790520000000001

>  <mol_id>  (1) 
4

>  <isomer_id>  (1) 
1

>  <CID>  (1) 
10

>  <Energy>  (1) 
87.06028951720414

$$$$
