PD1-PDL1.sdf
     RDKit          3D

 72 75  0  0  0  0  0  0  0  0999 V2000
    9.0553    1.6107    1.2284 C   0  0  0  0  0  0  0  0  0  0  0  0
    8.9170    2.3162    0.0294 C   0  0  0  0  0  0  0  0  0  0  0  0
    7.8181    2.0743   -0.8031 C   0  0  0  0  0  0  0  0  0  0  0  0
    6.8425    1.1291   -0.4470 C   0  0  0  0  0  0  0  0  0  0  0  0
    7.0013    0.4183    0.7545 C   0  0  0  0  0  0  0  0  0  0  0  0
    8.0966    0.6604    1.5909 C   0  0  0  0  0  0  0  0  0  0  0  0
    5.6957    0.8668   -1.3378 C   0  0  0  0  0  0  0  0  0  0  0  0
    5.9766    0.5070   -2.6639 C   0  0  0  0  0  0  0  0  0  0  0  0
    4.9543    0.1892   -3.5540 C   0  0  0  0  0  0  0  0  0  0  0  0
    3.6300    0.2226   -3.1268 C   0  0  0  0  0  0  0  0  0  0  0  0
    3.3060    0.5995   -1.8149 C   0  0  0  0  0  0  0  0  0  0  0  0
    4.3440    0.9447   -0.9076 C   0  0  0  0  0  0  0  0  0  0  0  0
    4.0111    1.3949    0.5056 C   0  0  0  0  0  0  0  0  0  0  0  0
    1.8459    0.5981   -1.4202 C   0  0  0  0  0  0  0  0  0  0  0  0
    1.6432   -0.5205   -0.4896 N   0  0  0  0  0  0  0  0  0  0  0  0
    0.4385   -0.8356    0.1385 C   0  0  0  0  0  0  0  0  0  0  0  0
   -0.6210    0.0754    0.1771 C   0  0  0  0  0  0  0  0  0  0  0  0
   -1.8241   -0.2383    0.8211 C   0  0  0  0  0  0  0  0  0  0  0  0
   -1.9627   -1.4838    1.4477 C   0  0  0  0  0  0  0  0  0  0  0  0
   -0.9063   -2.4023    1.4064 C   0  0  0  0  0  0  0  0  0  0  0  0
    0.2964   -2.0888    0.7593 C   0  0  0  0  0  0  0  0  0  0  0  0
    1.4147   -3.1046    0.7333 C   0  0  0  0  0  0  0  0  0  0  0  0
   -3.2433   -1.8371    2.1484 C   0  0  0  0  0  0  0  0  0  0  0  0
   -4.0627   -2.6700    1.2549 N   0  0  0  0  0  4  0  0  0  0  0  0
   -2.8703    0.6463    0.8884 O   0  0  0  0  0  0  0  0  0  0  0  0
   -3.1830    1.3538   -0.3222 C   0  0  0  0  0  0  0  0  0  0  0  0
   -4.6157    1.8141   -0.2388 C   0  0  0  0  0  0  0  0  0  0  0  0
   -5.0937    2.4450    0.9137 C   0  0  0  0  0  0  0  0  0  0  0  0
   -6.4259    2.8515    0.9495 C   0  0  0  0  0  0  0  0  0  0  0  0
   -7.2332    2.6198   -0.1662 C   0  0  0  0  0  0  0  0  0  0  0  0
   -6.7782    2.0162   -1.2760 N   0  0  0  0  0  0  0  0  0  0  0  0
   -5.4941    1.6166   -1.3162 C   0  0  0  0  0  0  0  0  0  0  0  0
   -4.7849   -1.8851    0.2100 C   0  0  1  0  0  0  0  0  0  0  0  0
   -4.1885   -2.1131   -1.1897 C   0  0  0  0  0  0  0  0  0  0  0  0
   -4.4377   -1.2910   -2.1007 O   0  0  0  0  0  1  0  0  0  0  0  0
   -3.4603   -3.1347   -1.3000 O   0  0  0  0  0  0  0  0  0  0  0  0
   -6.2545   -2.3025    0.1773 C   0  0  0  0  0  0  0  0  0  0  0  0
   -6.6950   -2.5942    1.5142 O   0  0  0  0  0  0  0  0  0  0  0  0
   -6.9692    3.4933    2.1044 C   0  0  0  0  0  0  0  0  0  0  0  0
   -7.4151    4.0125    3.0468 N   0  0  0  0  0  0  0  0  0  0  0  0
    9.9077    1.7984    1.8749 H   0  0  0  0  0  0  0  0  0  0  0  0
    9.6615    3.0536   -0.2560 H   0  0  0  0  0  0  0  0  0  0  0  0
    7.7152    2.6322   -1.7290 H   0  0  0  0  0  0  0  0  0  0  0  0
    6.2708   -0.3338    1.0355 H   0  0  0  0  0  0  0  0  0  0  0  0
    8.2032    0.1072    2.5194 H   0  0  0  0  0  0  0  0  0  0  0  0
    7.0073    0.4518   -3.0013 H   0  0  0  0  0  0  0  0  0  0  0  0
    5.1908   -0.0984   -4.5743 H   0  0  0  0  0  0  0  0  0  0  0  0
    2.8466   -0.0500   -3.8286 H   0  0  0  0  0  0  0  0  0  0  0  0
    3.0662    1.9400    0.5449 H   0  0  0  0  0  0  0  0  0  0  0  0
    4.7756    2.0714    0.8975 H   0  0  0  0  0  0  0  0  0  0  0  0
    3.9365    0.5260    1.1655 H   0  0  0  0  0  0  0  0  0  0  0  0
    1.2070    0.4682   -2.3008 H   0  0  0  0  0  0  0  0  0  0  0  0
    1.5792    1.5557   -0.9644 H   0  0  0  0  0  0  0  0  0  0  0  0
    2.3417   -1.2598   -0.5295 H   0  0  0  0  0  0  0  0  0  0  0  0
   -0.5104    1.0469   -0.2832 H   0  0  0  0  0  0  0  0  0  0  0  0
   -1.0184   -3.3726    1.8799 H   0  0  0  0  0  0  0  0  0  0  0  0
    1.6233   -3.4060   -0.2979 H   0  0  0  0  0  0  0  0  0  0  0  0
    1.1513   -3.9999    1.3042 H   0  0  0  0  0  0  0  0  0  0  0  0
    2.3238   -2.6781    1.1682 H   0  0  0  0  0  0  0  0  0  0  0  0
   -3.0133   -2.3702    3.0776 H   0  0  0  0  0  0  0  0  0  0  0  0
   -3.7823   -0.9203    2.4176 H   0  0  0  0  0  0  0  0  0  0  0  0
   -3.4556   -3.3298    0.7460 H   0  0  0  0  0  0  0  0  0  0  0  0
   -4.7649   -3.1837    1.7925 H   0  0  0  0  0  0  0  0  0  0  0  0
   -2.5263    2.2224   -0.4335 H   0  0  0  0  0  0  0  0  0  0  0  0
   -3.0387    0.7096   -1.1979 H   0  0  0  0  0  0  0  0  0  0  0  0
   -4.4390    2.6079    1.7677 H   0  0  0  0  0  0  0  0  0  0  0  0
   -8.2719    2.9369   -0.1413 H   0  0  0  0  0  0  0  0  0  0  0  0
   -5.1329    1.1389   -2.2219 H   0  0  0  0  0  0  0  0  0  0  0  0
   -4.7237   -0.8160    0.4279 H   0  0  0  0  0  0  0  0  0  0  0  0
   -6.3846   -3.1952   -0.4452 H   0  0  0  0  0  0  0  0  0  0  0  0
   -6.8531   -1.4961   -0.2606 H   0  0  0  0  0  0  0  0  0  0  0  0
   -7.6605   -2.7320    1.5212 H   0  0  0  0  0  0  0  0  0  0  0  0
  1  2  2  0
  1  6  1  0
  2  3  1  0
  3  4  2  0
  4  5  1  0
  4  7  1  0
  5  6  2  0
  7  8  2  0
  7 12  1  0
  8  9  1  0
  9 10  2  0
 10 11  1  0
 11 12  2  0
 11 14  1  0
 12 13  1  0
 14 15  1  0
 15 16  1  0
 16 17  2  0
 16 21  1  0
 17 18  1  0
 18 19  2  0
 18 25  1  0
 19 20  1  0
 19 23  1  0
 20 21  2  0
 21 22  1  0
 23 24  1  0
 24 33  1  0
 25 26  1  0
 26 27  1  0
 27 28  2  0
 27 32  1  0
 28 29  1  0
 29 30  2  0
 29 39  1  0
 30 31  1  0
 31 32  2  0
 33 34  1  0
 33 37  1  0
 34 35  1  0
 34 36  2  0
 37 38  1  0
 39 40  3  0
  1 41  1  0
  2 42  1  0
  3 43  1  0
  5 44  1  0
  6 45  1  0
  8 46  1  0
  9 47  1  0
 10 48  1  0
 13 49  1  0
 13 50  1  0
 13 51  1  0
 14 52  1  0
 14 53  1  0
 15 54  1  0
 17 55  1  0
 20 56  1  0
 22 57  1  0
 22 58  1  0
 22 59  1  0
 23 60  1  0
 23 61  1  0
 24 62  1  0
 24 63  1  0
 26 64  1  0
 26 65  1  0
 28 66  1  0
 30 67  1  0
 32 68  1  0
 33 69  1  1
 37 70  1  0
 37 71  1  0
 38 72  1  0
M  CHG  2  24   1  35  -1
M  END
>  <%C>  (1) 
98.790520000000001

>  <mol_id>  (1) 
4

>  <isomer_id>  (1) 
1

>  <CID>  (1) 
10

>  <Energy>  (1) 
87.06028951720414

$$$$
