PD1-PDL1.sdf
     RDKit          3D

 72 75  0  0  0  0  0  0  0  0999 V2000
    8.5169    0.3061   -1.1030 C   0  0  0  0  0  0  0  0  0  0  0  0
    8.2580    1.6515   -1.3793 C   0  0  0  0  0  0  0  0  0  0  0  0
    7.0306    2.2173   -1.0165 C   0  0  0  0  0  0  0  0  0  0  0  0
    6.0454    1.4457   -0.3796 C   0  0  0  0  0  0  0  0  0  0  0  0
    6.3237    0.0981   -0.0964 C   0  0  0  0  0  0  0  0  0  0  0  0
    7.5497   -0.4707   -0.4591 C   0  0  0  0  0  0  0  0  0  0  0  0
    4.7614    2.0551    0.0154 C   0  0  0  0  0  0  0  0  0  0  0  0
    4.8136    3.1956    0.8297 C   0  0  0  0  0  0  0  0  0  0  0  0
    3.6494    3.8059    1.2881 C   0  0  0  0  0  0  0  0  0  0  0  0
    2.4098    3.2784    0.9401 C   0  0  0  0  0  0  0  0  0  0  0  0
    2.3150    2.1481    0.1146 C   0  0  0  0  0  0  0  0  0  0  0  0
    3.4990    1.5337   -0.3751 C   0  0  0  0  0  0  0  0  0  0  0  0
    3.4135    0.3420   -1.3155 C   0  0  0  0  0  0  0  0  0  0  0  0
    0.9335    1.6224   -0.2004 C   0  0  0  0  0  0  0  0  0  0  0  0
    0.7853    0.3317    0.4879 N   0  0  0  0  0  0  0  0  0  0  0  0
   -0.1957   -0.6198    0.2126 C   0  0  0  0  0  0  0  0  0  0  0  0
   -1.2954   -0.3007   -0.5827 C   0  0  0  0  0  0  0  0  0  0  0  0
   -2.3135   -1.2224   -0.8255 C   0  0  0  0  0  0  0  0  0  0  0  0
   -2.2065   -2.5186   -0.3047 C   0  0  0  0  0  0  0  0  0  0  0  0
   -1.0883   -2.8585    0.4726 C   0  0  0  0  0  0  0  0  0  0  0  0
   -0.0883   -1.9137    0.7507 C   0  0  0  0  0  0  0  0  0  0  0  0
    1.0900   -2.3004    1.6139 C   0  0  0  0  0  0  0  0  0  0  0  0
   -3.2952   -3.5191   -0.5849 C   0  0  0  0  0  0  0  0  0  0  0  0
   -3.9344   -3.9434    0.6750 N   0  0  0  0  0  4  0  0  0  0  0  0
   -3.3997   -0.8722   -1.5846 O   0  0  0  0  0  0  0  0  0  0  0  0
   -4.3063    0.0528   -0.9555 C   0  0  0  0  0  0  0  0  0  0  0  0
   -3.9835    1.4591   -1.3864 C   0  0  0  0  0  0  0  0  0  0  0  0
   -3.3582    2.3549   -0.5149 C   0  0  0  0  0  0  0  0  0  0  0  0
   -3.0273    3.6220   -0.9905 C   0  0  0  0  0  0  0  0  0  0  0  0
   -3.3655    3.9621   -2.3034 C   0  0  0  0  0  0  0  0  0  0  0  0
   -3.9819    3.1064   -3.1369 N   0  0  0  0  0  0  0  0  0  0  0  0
   -4.2807    1.8746   -2.6893 C   0  0  0  0  0  0  0  0  0  0  0  0
   -4.5649   -2.8250    1.4485 C   0  0  1  0  0  0  0  0  0  0  0  0
   -6.0373   -2.6234    1.0676 C   0  0  0  0  0  0  0  0  0  0  0  0
   -6.4532   -1.4761    0.8003 O   0  0  0  0  0  1  0  0  0  0  0  0
   -6.7017   -3.6907    0.9854 O   0  0  0  0  0  0  0  0  0  0  0  0
   -4.5297   -3.1748    2.9351 C   0  0  0  0  0  0  0  0  0  0  0  0
   -5.0395   -4.5036    3.0851 O   0  0  0  0  0  0  0  0  0  0  0  0
   -2.3276    4.5546   -0.1651 C   0  0  0  0  0  0  0  0  0  0  0  0
   -1.7350    5.3012    0.5040 N   0  0  0  0  0  0  0  0  0  0  0  0
    9.4691   -0.1332   -1.3860 H   0  0  0  0  0  0  0  0  0  0  0  0
    9.0089    2.2579   -1.8770 H   0  0  0  0  0  0  0  0  0  0  0  0
    6.8366    3.2620   -1.2406 H   0  0  0  0  0  0  0  0  0  0  0  0
    5.5840   -0.5078    0.4169 H   0  0  0  0  0  0  0  0  0  0  0  0
    7.7514   -1.5143   -0.2370 H   0  0  0  0  0  0  0  0  0  0  0  0
    5.7755    3.6019    1.1276 H   0  0  0  0  0  0  0  0  0  0  0  0
    3.7082    4.6836    1.9252 H   0  0  0  0  0  0  0  0  0  0  0  0
    1.5118    3.7591    1.3199 H   0  0  0  0  0  0  0  0  0  0  0  0
    2.5437    0.4091   -1.9725 H   0  0  0  0  0  0  0  0  0  0  0  0
    3.3432   -0.5852   -0.7402 H   0  0  0  0  0  0  0  0  0  0  0  0
    4.2898    0.2856   -1.9669 H   0  0  0  0  0  0  0  0  0  0  0  0
    0.8085    1.5179   -1.2826 H   0  0  0  0  0  0  0  0  0  0  0  0
    0.1654    2.3206    0.1501 H   0  0  0  0  0  0  0  0  0  0  0  0
    1.5774    0.0356    1.0547 H   0  0  0  0  0  0  0  0  0  0  0  0
   -1.3740    0.6795   -1.0298 H   0  0  0  0  0  0  0  0  0  0  0  0
   -0.9943   -3.8628    0.8730 H   0  0  0  0  0  0  0  0  0  0  0  0
    1.1544   -1.6398    2.4843 H   0  0  0  0  0  0  0  0  0  0  0  0
    0.9983   -3.3294    1.9740 H   0  0  0  0  0  0  0  0  0  0  0  0
    2.0185   -2.2190    1.0406 H   0  0  0  0  0  0  0  0  0  0  0  0
   -2.8697   -4.3783   -1.1169 H   0  0  0  0  0  0  0  0  0  0  0  0
   -4.0434   -3.0648   -1.2477 H   0  0  0  0  0  0  0  0  0  0  0  0
   -4.6936   -4.6029    0.4583 H   0  0  0  0  0  0  0  0  0  0  0  0
   -3.2616   -4.4185    1.2741 H   0  0  0  0  0  0  0  0  0  0  0  0
   -4.2664   -0.0290    0.1366 H   0  0  0  0  0  0  0  0  0  0  0  0
   -5.3311   -0.1939   -1.2535 H   0  0  0  0  0  0  0  0  0  0  0  0
   -3.1060    2.0592    0.5019 H   0  0  0  0  0  0  0  0  0  0  0  0
   -3.1122    4.9510   -2.6746 H   0  0  0  0  0  0  0  0  0  0  0  0
   -4.7646    1.1769   -3.3669 H   0  0  0  0  0  0  0  0  0  0  0  0
   -4.0445   -1.8778    1.2827 H   0  0  0  0  0  0  0  0  0  0  0  0
   -3.5017   -3.1255    3.3080 H   0  0  0  0  0  0  0  0  0  0  0  0
   -5.1310   -2.4642    3.5135 H   0  0  0  0  0  0  0  0  0  0  0  0
   -5.9363   -4.5405    2.6736 H   0  0  0  0  0  0  0  0  0  0  0  0
  1  2  2  0
  1  6  1  0
  2  3  1  0
  3  4  2  0
  4  5  1  0
  4  7  1  0
  5  6  2  0
  7  8  2  0
  7 12  1  0
  8  9  1  0
  9 10  2  0
 10 11  1  0
 11 12  2  0
 11 14  1  0
 12 13  1  0
 14 15  1  0
 15 16  1  0
 16 17  2  0
 16 21  1  0
 17 18  1  0
 18 19  2  0
 18 25  1  0
 19 20  1  0
 19 23  1  0
 20 21  2  0
 21 22  1  0
 23 24  1  0
 24 33  1  0
 25 26  1  0
 26 27  1  0
 27 28  2  0
 27 32  1  0
 28 29  1  0
 29 30  2  0
 29 39  1  0
 30 31  1  0
 31 32  2  0
 33 34  1  0
 33 37  1  0
 34 35  1  0
 34 36  2  0
 37 38  1  0
 39 40  3  0
  1 41  1  0
  2 42  1  0
  3 43  1  0
  5 44  1  0
  6 45  1  0
  8 46  1  0
  9 47  1  0
 10 48  1  0
 13 49  1  0
 13 50  1  0
 13 51  1  0
 14 52  1  0
 14 53  1  0
 15 54  1  0
 17 55  1  0
 20 56  1  0
 22 57  1  0
 22 58  1  0
 22 59  1  0
 23 60  1  0
 23 61  1  0
 24 62  1  0
 24 63  1  0
 26 64  1  0
 26 65  1  0
 28 66  1  0
 30 67  1  0
 32 68  1  0
 33 69  1  1
 37 70  1  0
 37 71  1  0
 38 72  1  0
M  CHG  2  24   1  35  -1
M  END
>  <%C>  (1) 
98.790520000000001

>  <mol_id>  (1) 
4

>  <isomer_id>  (1) 
1

>  <CID>  (1) 
10

>  <Energy>  (1) 
87.06028951720414

$$$$
