PD1-PDL1.sdf
     RDKit          3D

 72 75  0  0  0  0  0  0  0  0999 V2000
    8.8365    1.3663    1.4049 C   0  0  0  0  0  0  0  0  0  0  0  0
    8.7163    2.2117    0.2980 C   0  0  0  0  0  0  0  0  0  0  0  0
    7.6299    2.0734   -0.5731 C   0  0  0  0  0  0  0  0  0  0  0  0
    6.6495    1.0941   -0.3466 C   0  0  0  0  0  0  0  0  0  0  0  0
    6.7881    0.2438    0.7624 C   0  0  0  0  0  0  0  0  0  0  0  0
    7.8723    0.3810    1.6363 C   0  0  0  0  0  0  0  0  0  0  0  0
    5.5196    0.9448   -1.2811 C   0  0  0  0  0  0  0  0  0  0  0  0
    5.8285    0.7150   -2.6286 C   0  0  0  0  0  0  0  0  0  0  0  0
    4.8240    0.5246   -3.5725 C   0  0  0  0  0  0  0  0  0  0  0  0
    3.4898    0.5612   -3.1782 C   0  0  0  0  0  0  0  0  0  0  0  0
    3.1383    0.8088   -1.8422 C   0  0  0  0  0  0  0  0  0  0  0  0
    4.1601    1.0142   -0.8754 C   0  0  0  0  0  0  0  0  0  0  0  0
    3.8105    1.3128    0.5737 C   0  0  0  0  0  0  0  0  0  0  0  0
    1.6659    0.8376   -1.4988 C   0  0  0  0  0  0  0  0  0  0  0  0
    1.3582   -0.3636   -0.7116 N   0  0  0  0  0  0  0  0  0  0  0  0
    0.1322   -0.6645   -0.1176 C   0  0  0  0  0  0  0  0  0  0  0  0
   -0.9498    0.2165   -0.2009 C   0  0  0  0  0  0  0  0  0  0  0  0
   -2.1892   -0.0823    0.3928 C   0  0  0  0  0  0  0  0  0  0  0  0
   -2.3353   -1.2961    1.0830 C   0  0  0  0  0  0  0  0  0  0  0  0
   -1.2421   -2.1758    1.1766 C   0  0  0  0  0  0  0  0  0  0  0  0
   -0.0143   -1.8748    0.5764 C   0  0  0  0  0  0  0  0  0  0  0  0
    1.1254   -2.8621    0.6833 C   0  0  0  0  0  0  0  0  0  0  0  0
   -3.6667   -1.6162    1.7242 C   0  0  0  0  0  0  0  0  0  0  0  0
   -4.0122   -3.0444    1.6012 N   0  0  0  0  0  4  0  0  0  0  0  0
   -3.2878    0.7488    0.3423 O   0  0  0  0  0  0  0  0  0  0  0  0
   -3.1630    2.0184   -0.3100 C   0  0  0  0  0  0  0  0  0  0  0  0
   -4.4841    2.7256   -0.2033 C   0  0  0  0  0  0  0  0  0  0  0  0
   -4.7592    3.5813    0.8668 C   0  0  0  0  0  0  0  0  0  0  0  0
   -6.0038    4.2084    0.9120 C   0  0  0  0  0  0  0  0  0  0  0  0
   -6.9276    3.9581   -0.1062 C   0  0  0  0  0  0  0  0  0  0  0  0
   -6.6658    3.1285   -1.1315 N   0  0  0  0  0  0  0  0  0  0  0  0
   -5.4707    2.5183   -1.1759 C   0  0  0  0  0  0  0  0  0  0  0  0
   -4.1194   -3.5601    0.2028 C   0  0  1  0  0  0  0  0  0  0  0  0
   -3.6420   -5.0301    0.1693 C   0  0  0  0  0  0  0  0  0  0  0  0
   -2.6526   -5.2497    0.9148 O   0  0  0  0  0  1  0  0  0  0  0  0
   -4.3853   -5.9141   -0.3230 O   0  0  0  0  0  0  0  0  0  0  0  0
   -5.5667   -3.4150   -0.2676 C   0  0  0  0  0  0  0  0  0  0  0  0
   -6.3776   -4.2058    0.6019 O   0  0  0  0  0  0  0  0  0  0  0  0
   -6.3425    5.0960    1.9790 C   0  0  0  0  0  0  0  0  0  0  0  0
   -6.6170    5.8202    2.8486 N   0  0  0  0  0  0  0  0  0  0  0  0
    9.6793    1.4728    2.0818 H   0  0  0  0  0  0  0  0  0  0  0  0
    9.4652    2.9764    0.1145 H   0  0  0  0  0  0  0  0  0  0  0  0
    7.5409    2.7379   -1.4273 H   0  0  0  0  0  0  0  0  0  0  0  0
    6.0527   -0.5348    0.9397 H   0  0  0  0  0  0  0  0  0  0  0  0
    7.9668   -0.2809    2.4920 H   0  0  0  0  0  0  0  0  0  0  0  0
    6.8673    0.6641   -2.9415 H   0  0  0  0  0  0  0  0  0  0  0  0
    5.0826    0.3377   -4.6107 H   0  0  0  0  0  0  0  0  0  0  0  0
    2.7211    0.3933   -3.9273 H   0  0  0  0  0  0  0  0  0  0  0  0
    2.8582    1.8381    0.6656 H   0  0  0  0  0  0  0  0  0  0  0  0
    3.7456    0.3804    1.1420 H   0  0  0  0  0  0  0  0  0  0  0  0
    4.5661    1.9545    1.0358 H   0  0  0  0  0  0  0  0  0  0  0  0
    1.4264    1.7497   -0.9438 H   0  0  0  0  0  0  0  0  0  0  0  0
    1.0608    0.8443   -2.4121 H   0  0  0  0  0  0  0  0  0  0  0  0
    2.0847   -1.0766   -0.6684 H   0  0  0  0  0  0  0  0  0  0  0  0
   -0.8123    1.1411   -0.7412 H   0  0  0  0  0  0  0  0  0  0  0  0
   -1.3364   -3.1187    1.7075 H   0  0  0  0  0  0  0  0  0  0  0  0
    0.8252   -3.7557    1.2397 H   0  0  0  0  0  0  0  0  0  0  0  0
    1.9735   -2.4046    1.2016 H   0  0  0  0  0  0  0  0  0  0  0  0
    1.4473   -3.1772   -0.3140 H   0  0  0  0  0  0  0  0  0  0  0  0
   -4.4468   -1.0102    1.2471 H   0  0  0  0  0  0  0  0  0  0  0  0
   -3.6279   -1.3224    2.7797 H   0  0  0  0  0  0  0  0  0  0  0  0
   -3.2886   -3.6169    2.0580 H   0  0  0  0  0  0  0  0  0  0  0  0
   -4.9076   -3.2293    2.0634 H   0  0  0  0  0  0  0  0  0  0  0  0
   -2.3793    2.6186    0.1659 H   0  0  0  0  0  0  0  0  0  0  0  0
   -2.8967    1.8841   -1.3647 H   0  0  0  0  0  0  0  0  0  0  0  0
   -4.0251    3.7545    1.6512 H   0  0  0  0  0  0  0  0  0  0  0  0
   -7.8958    4.4495   -0.0721 H   0  0  0  0  0  0  0  0  0  0  0  0
   -5.2641    1.8436   -2.0018 H   0  0  0  0  0  0  0  0  0  0  0  0
   -3.4646   -2.9959   -0.4676 H   0  0  0  0  0  0  0  0  0  0  0  0
   -5.8770   -2.3658   -0.2263 H   0  0  0  0  0  0  0  0  0  0  0  0
   -5.6711   -3.7566   -1.3034 H   0  0  0  0  0  0  0  0  0  0  0  0
   -6.1414   -5.1496    0.4301 H   0  0  0  0  0  0  0  0  0  0  0  0
  1  2  2  0
  1  6  1  0
  2  3  1  0
  3  4  2  0
  4  5  1  0
  4  7  1  0
  5  6  2  0
  7  8  2  0
  7 12  1  0
  8  9  1  0
  9 10  2  0
 10 11  1  0
 11 12  2  0
 11 14  1  0
 12 13  1  0
 14 15  1  0
 15 16  1  0
 16 17  2  0
 16 21  1  0
 17 18  1  0
 18 19  2  0
 18 25  1  0
 19 20  1  0
 19 23  1  0
 20 21  2  0
 21 22  1  0
 23 24  1  0
 24 33  1  0
 25 26  1  0
 26 27  1  0
 27 28  2  0
 27 32  1  0
 28 29  1  0
 29 30  2  0
 29 39  1  0
 30 31  1  0
 31 32  2  0
 33 34  1  0
 33 37  1  0
 34 35  1  0
 34 36  2  0
 37 38  1  0
 39 40  3  0
  1 41  1  0
  2 42  1  0
  3 43  1  0
  5 44  1  0
  6 45  1  0
  8 46  1  0
  9 47  1  0
 10 48  1  0
 13 49  1  0
 13 50  1  0
 13 51  1  0
 14 52  1  0
 14 53  1  0
 15 54  1  0
 17 55  1  0
 20 56  1  0
 22 57  1  0
 22 58  1  0
 22 59  1  0
 23 60  1  0
 23 61  1  0
 24 62  1  0
 24 63  1  0
 26 64  1  0
 26 65  1  0
 28 66  1  0
 30 67  1  0
 32 68  1  0
 33 69  1  6
 37 70  1  0
 37 71  1  0
 38 72  1  0
M  CHG  2  24   1  35  -1
M  END
>  <%C>  (1) 
98.790520000000001

>  <mol_id>  (1) 
4

>  <isomer_id>  (1) 
1

>  <CID>  (1) 
10

>  <Energy>  (1) 
87.06028951720414

$$$$
