PD1-PDL1.sdf
     RDKit          3D

 72 75  0  0  0  0  0  0  0  0999 V2000
    4.3724    5.3700    0.4292 C   0  0  0  0  0  0  0  0  0  0  0  0
    5.5326    4.6872    0.0512 C   0  0  0  0  0  0  0  0  0  0  0  0
    5.4698    3.3274   -0.2733 C   0  0  0  0  0  0  0  0  0  0  0  0
    4.2507    2.6340   -0.2165 C   0  0  0  0  0  0  0  0  0  0  0  0
    3.0913    3.3330    0.1565 C   0  0  0  0  0  0  0  0  0  0  0  0
    3.1503    4.6928    0.4806 C   0  0  0  0  0  0  0  0  0  0  0  0
    4.1840    1.2083   -0.5805 C   0  0  0  0  0  0  0  0  0  0  0  0
    4.6276    0.8523   -1.8613 C   0  0  0  0  0  0  0  0  0  0  0  0
    4.5541   -0.4644   -2.3043 C   0  0  0  0  0  0  0  0  0  0  0  0
    4.0144   -1.4417   -1.4741 C   0  0  0  0  0  0  0  0  0  0  0  0
    3.5531   -1.1275   -0.1847 C   0  0  0  0  0  0  0  0  0  0  0  0
    3.6755    0.2067    0.2892 C   0  0  0  0  0  0  0  0  0  0  0  0
    3.2916    0.5473    1.7192 C   0  0  0  0  0  0  0  0  0  0  0  0
    2.9332   -2.2401    0.6475 C   0  0  0  0  0  0  0  0  0  0  0  0
    2.0006   -3.0569   -0.1556 N   0  0  0  0  0  0  0  0  0  0  0  0
    0.7092   -2.6767   -0.5345 C   0  0  0  0  0  0  0  0  0  0  0  0
    0.2310   -1.3848   -0.2949 C   0  0  0  0  0  0  0  0  0  0  0  0
   -1.0615   -0.9983   -0.6695 C   0  0  0  0  0  0  0  0  0  0  0  0
   -1.8853   -1.9270   -1.3216 C   0  0  0  0  0  0  0  0  0  0  0  0
   -1.4135   -3.2221   -1.5688 C   0  0  0  0  0  0  0  0  0  0  0  0
   -0.1234   -3.6082   -1.1792 C   0  0  0  0  0  0  0  0  0  0  0  0
    0.3461   -5.0175   -1.4549 C   0  0  0  0  0  0  0  0  0  0  0  0
   -3.2845   -1.5537   -1.7233 C   0  0  0  0  0  0  0  0  0  0  0  0
   -4.0205   -1.2319   -0.4928 N   0  0  0  0  0  4  0  0  0  0  0  0
   -1.5633    0.2600   -0.4314 O   0  0  0  0  0  0  0  0  0  0  0  0
   -1.1675    0.8879    0.7984 C   0  0  0  0  0  0  0  0  0  0  0  0
   -2.0881    2.0530    1.0419 C   0  0  0  0  0  0  0  0  0  0  0  0
   -2.1615    3.1003    0.1193 C   0  0  0  0  0  0  0  0  0  0  0  0
   -3.0192    4.1661    0.3870 C   0  0  0  0  0  0  0  0  0  0  0  0
   -3.7695    4.1522    1.5651 C   0  0  0  0  0  0  0  0  0  0  0  0
   -3.7019    3.1460    2.4516 N   0  0  0  0  0  0  0  0  0  0  0  0
   -2.8820    2.1101    2.1987 C   0  0  0  0  0  0  0  0  0  0  0  0
   -4.3341   -2.4176    0.3687 C   0  0  1  0  0  0  0  0  0  0  0  0
   -4.0453   -2.1275    1.8581 C   0  0  0  0  0  0  0  0  0  0  0  0
   -4.3761   -2.9815    2.7171 O   0  0  0  0  0  1  0  0  0  0  0  0
   -3.5096   -1.0145    2.1001 O   0  0  0  0  0  0  0  0  0  0  0  0
   -5.7842   -2.8733    0.2015 C   0  0  0  0  0  0  0  0  0  0  0  0
   -5.9404   -4.1128    0.8843 O   0  0  0  0  0  0  0  0  0  0  0  0
   -3.1380    5.2626   -0.5210 C   0  0  0  0  0  0  0  0  0  0  0  0
   -3.2371    6.1545   -1.2631 N   0  0  0  0  0  0  0  0  0  0  0  0
    4.4202    6.4260    0.6791 H   0  0  0  0  0  0  0  0  0  0  0  0
    6.4827    5.2119    0.0084 H   0  0  0  0  0  0  0  0  0  0  0  0
    6.3751    2.8025   -0.5631 H   0  0  0  0  0  0  0  0  0  0  0  0
    2.1380    2.8152    0.1834 H   0  0  0  0  0  0  0  0  0  0  0  0
    2.2466    5.2229    0.7669 H   0  0  0  0  0  0  0  0  0  0  0  0
    5.0168    1.6150   -2.5292 H   0  0  0  0  0  0  0  0  0  0  0  0
    4.8971   -0.7247   -3.3012 H   0  0  0  0  0  0  0  0  0  0  0  0
    3.9394   -2.4591   -1.8456 H   0  0  0  0  0  0  0  0  0  0  0  0
    2.2069    0.6569    1.8040 H   0  0  0  0  0  0  0  0  0  0  0  0
    3.6246   -0.2366    2.4050 H   0  0  0  0  0  0  0  0  0  0  0  0
    3.7620    1.4738    2.0582 H   0  0  0  0  0  0  0  0  0  0  0  0
    2.3928   -1.8511    1.5147 H   0  0  0  0  0  0  0  0  0  0  0  0
    3.7366   -2.8753    1.0345 H   0  0  0  0  0  0  0  0  0  0  0  0
    2.2674   -4.0193   -0.3470 H   0  0  0  0  0  0  0  0  0  0  0  0
    0.8817   -0.6629    0.1749 H   0  0  0  0  0  0  0  0  0  0  0  0
   -2.0609   -3.9417   -2.0615 H   0  0  0  0  0  0  0  0  0  0  0  0
    0.5640   -5.5320   -0.5139 H   0  0  0  0  0  0  0  0  0  0  0  0
   -0.4166   -5.5920   -1.9894 H   0  0  0  0  0  0  0  0  0  0  0  0
    1.2524   -5.0009   -2.0680 H   0  0  0  0  0  0  0  0  0  0  0  0
   -3.2456   -0.6867   -2.3943 H   0  0  0  0  0  0  0  0  0  0  0  0
   -3.7622   -2.3806   -2.2618 H   0  0  0  0  0  0  0  0  0  0  0  0
   -3.4162   -0.6142    0.0793 H   0  0  0  0  0  0  0  0  0  0  0  0
   -4.8732   -0.7191   -0.7081 H   0  0  0  0  0  0  0  0  0  0  0  0
   -1.2175    0.1755    1.6312 H   0  0  0  0  0  0  0  0  0  0  0  0
   -0.1375    1.2520    0.7292 H   0  0  0  0  0  0  0  0  0  0  0  0
   -1.5642    3.0814   -0.7904 H   0  0  0  0  0  0  0  0  0  0  0  0
   -4.4362    4.9833    1.7776 H   0  0  0  0  0  0  0  0  0  0  0  0
   -2.8286    1.3046    2.9251 H   0  0  0  0  0  0  0  0  0  0  0  0
   -3.6860   -3.2535    0.0912 H   0  0  0  0  0  0  0  0  0  0  0  0
   -6.0245   -3.0059   -0.8582 H   0  0  0  0  0  0  0  0  0  0  0  0
   -6.4678   -2.1253    0.6177 H   0  0  0  0  0  0  0  0  0  0  0  0
   -5.5482   -4.0133    1.7915 H   0  0  0  0  0  0  0  0  0  0  0  0
  1  2  2  0
  1  6  1  0
  2  3  1  0
  3  4  2  0
  4  5  1  0
  4  7  1  0
  5  6  2  0
  7  8  2  0
  7 12  1  0
  8  9  1  0
  9 10  2  0
 10 11  1  0
 11 12  2  0
 11 14  1  0
 12 13  1  0
 14 15  1  0
 15 16  1  0
 16 17  2  0
 16 21  1  0
 17 18  1  0
 18 19  2  0
 18 25  1  0
 19 20  1  0
 19 23  1  0
 20 21  2  0
 21 22  1  0
 23 24  1  0
 24 33  1  0
 25 26  1  0
 26 27  1  0
 27 28  2  0
 27 32  1  0
 28 29  1  0
 29 30  2  0
 29 39  1  0
 30 31  1  0
 31 32  2  0
 33 34  1  0
 33 37  1  0
 34 35  1  0
 34 36  2  0
 37 38  1  0
 39 40  3  0
  1 41  1  0
  2 42  1  0
  3 43  1  0
  5 44  1  0
  6 45  1  0
  8 46  1  0
  9 47  1  0
 10 48  1  0
 13 49  1  0
 13 50  1  0
 13 51  1  0
 14 52  1  0
 14 53  1  0
 15 54  1  0
 17 55  1  0
 20 56  1  0
 22 57  1  0
 22 58  1  0
 22 59  1  0
 23 60  1  0
 23 61  1  0
 24 62  1  0
 24 63  1  0
 26 64  1  0
 26 65  1  0
 28 66  1  0
 30 67  1  0
 32 68  1  0
 33 69  1  6
 37 70  1  0
 37 71  1  0
 38 72  1  0
M  CHG  2  24   1  35  -1
M  END
>  <%C>  (1) 
98.790520000000001

>  <mol_id>  (1) 
4

>  <isomer_id>  (1) 
1

>  <CID>  (1) 
10

>  <Energy>  (1) 
87.06028951720414

$$$$
