C24H26ClFN2
     RDKit          3D

 55 58  0  0  1  0  0  0  0  0999 V2000
   -4.8513    2.2960   -0.6901 C   0  0  0  0  0  0  0  0  0  0  0  0
   -5.1525    1.0960   -1.3482 C   0  0  0  0  0  0  0  0  0  0  0  0
   -4.2585    0.0142   -1.3077 C   0  0  0  0  0  0  0  0  0  0  0  0
   -3.0521    0.1130   -0.6010 C   0  0  0  0  0  0  0  0  0  0  0  0
   -2.7372    1.3898    0.0458 C   0  0  0  0  0  0  0  0  0  0  0  0
   -3.6487    2.4486    0.0004 C   0  0  0  0  0  0  0  0  0  0  0  0
   -2.0694   -1.1506   -0.4930 C   0  0  2  0  0  0  0  0  0  0  0  0
   -1.2929   -0.8527    0.7945 C   0  0  2  0  0  0  0  0  0  0  0  0
   -0.5527    0.4151    0.3362 C   0  0  1  0  0  0  0  0  0  0  0  0
   -1.3451    1.6444    0.7329 C   0  0  0  0  0  0  0  0  0  0  0  0
    0.7535    0.1881   -0.2819 N   0  0  2  0  0  4  0  0  0  0  0  0
   -0.9992   -1.2424   -1.6854 C   0  0  0  0  0  0  0  0  0  0  0  0
    0.5339   -0.9453   -1.3473 C   0  0  0  0  0  0  0  0  0  0  0  0
   -0.5050   -1.9917    1.4350 C   0  0  0  0  0  0  0  0  0  0  0  0
   -2.8540   -2.4694   -0.3903 C   0  0  0  0  0  0  0  0  0  0  0  0
    1.9859    0.0243    0.5940 C   0  0  1  0  0  0  0  0  0  0  0  0
    3.2752    0.0173   -0.2223 C   0  0  0  0  0  0  0  0  0  0  0  0
    1.9833    1.0857    1.7159 C   0  0  0  0  0  0  0  0  0  0  0  0
    3.1413    0.9316    2.6962 C   0  0  0  0  0  0  0  0  0  0  0  0
    4.1670   -1.0625   -0.0468 C   0  0  0  0  0  0  0  0  0  0  0  0
    5.3726   -1.1185   -0.7487 C   0  0  0  0  0  0  0  0  0  0  0  0
    5.7016   -0.0996   -1.6308 C   0  0  0  0  0  0  0  0  0  0  0  0
    4.8483    0.9756   -1.8287 C   0  0  0  0  0  0  0  0  0  0  0  0
    3.6418    1.0347   -1.1284 C   0  0  0  0  0  0  0  0  0  0  0  0
    2.6075    2.3806   -1.4565 Cl  0  0  0  0  0  0  0  0  0  0  0  0
    6.8561   -0.1576   -2.3041 F   0  0  0  0  0  0  0  0  0  0  0  0
   -6.3862    0.9698   -2.0702 C   0  0  0  0  0  0  0  0  0  0  0  0
   -7.3766    0.8566   -2.6629 N   0  0  0  0  0  0  0  0  0  0  0  0
   -5.5544    3.1285   -0.7243 H   0  0  0  0  0  0  0  0  0  0  0  0
   -4.5320   -0.9005   -1.8302 H   0  0  0  0  0  0  0  0  0  0  0  0
   -3.4293    3.4000    0.4817 H   0  0  0  0  0  0  0  0  0  0  0  0
   -2.0064   -0.5864    1.5910 H   0  0  0  0  0  0  0  0  0  0  0  0
   -0.8708    0.6693   -0.6793 H   0  0  0  0  0  0  0  0  0  0  0  0
   -1.4738    1.7242    1.8168 H   0  0  0  0  0  0  0  0  0  0  0  0
   -0.8949    2.5657    0.3454 H   0  0  0  0  0  0  0  0  0  0  0  0
    0.9661    1.0379   -0.8313 H   0  0  0  0  0  0  0  0  0  0  0  0
   -1.3046   -0.5589   -2.4897 H   0  0  0  0  0  0  0  0  0  0  0  0
   -1.0301   -2.2441   -2.1329 H   0  0  0  0  0  0  0  0  0  0  0  0
    1.0246   -1.8470   -0.9725 H   0  0  0  0  0  0  0  0  0  0  0  0
    1.0599   -0.6205   -2.2513 H   0  0  0  0  0  0  0  0  0  0  0  0
    0.1123   -1.6160    2.2569 H   0  0  0  0  0  0  0  0  0  0  0  0
   -1.1944   -2.7202    1.8778 H   0  0  0  0  0  0  0  0  0  0  0  0
    0.1251   -2.5495    0.7432 H   0  0  0  0  0  0  0  0  0  0  0  0
   -2.1879   -3.3206   -0.2128 H   0  0  0  0  0  0  0  0  0  0  0  0
   -3.5839   -2.4375    0.4265 H   0  0  0  0  0  0  0  0  0  0  0  0
   -3.3943   -2.6928   -1.3162 H   0  0  0  0  0  0  0  0  0  0  0  0
    1.8781   -0.9574    1.0639 H   0  0  0  0  0  0  0  0  0  0  0  0
    1.0590    1.0002    2.2992 H   0  0  0  0  0  0  0  0  0  0  0  0
    2.0001    2.1016    1.3080 H   0  0  0  0  0  0  0  0  0  0  0  0
    3.1671   -0.0782    3.1178 H   0  0  0  0  0  0  0  0  0  0  0  0
    3.0275    1.6398    3.5235 H   0  0  0  0  0  0  0  0  0  0  0  0
    4.1042    1.1356    2.2187 H   0  0  0  0  0  0  0  0  0  0  0  0
    3.9446   -1.8713    0.6495 H   0  0  0  0  0  0  0  0  0  0  0  0
    6.0633   -1.9470   -0.6099 H   0  0  0  0  0  0  0  0  0  0  0  0
    5.1385    1.7538   -2.5299 H   0  0  0  0  0  0  0  0  0  0  0  0
  1  2  1  0
  1  6  2  0
  2  3  2  0
  2 27  1  0
  3  4  1  0
  4  5  2  0
  4  7  1  0
  5  6  1  0
  5 10  1  0
  7  8  1  0
  7 12  1  0
  7 15  1  1
  8  9  1  0
  8 14  1  0
  9 10  1  0
  9 11  1  0
 11 13  1  0
 11 16  1  0
 12 13  1  0
 16 17  1  0
 16 18  1  0
 17 20  1  0
 17 24  2  0
 18 19  1  0
 20 21  2  0
 21 22  1  0
 22 23  2  0
 22 26  1  0
 23 24  1  0
 24 25  1  0
 27 28  3  0
  1 29  1  0
  3 30  1  0
  6 31  1  0
  8 32  1  1
  9 33  1  6
 10 34  1  0
 10 35  1  0
 11 36  1  6
 12 37  1  0
 12 38  1  0
 13 39  1  0
 13 40  1  0
 14 41  1  0
 14 42  1  0
 14 43  1  0
 15 44  1  0
 15 45  1  0
 15 46  1  0
 16 47  1  1
 18 48  1  0
 18 49  1  0
 19 50  1  0
 19 51  1  0
 19 52  1  0
 20 53  1  0
 21 54  1  0
 23 55  1  0
M  CHG  1  11   1
M  END
>  <CID>  (1) 
2

>  <Energy>  (1) 
165.05361184138877

$$$$
C24H26ClFN2
     RDKit          3D

 55 58  0  0  1  0  0  0  0  0999 V2000
   -4.7959    2.3046   -0.3522 C   0  0  0  0  0  0  0  0  0  0  0  0
   -5.0904    1.1982   -1.1601 C   0  0  0  0  0  0  0  0  0  0  0  0
   -4.1968    0.1190   -1.2476 C   0  0  0  0  0  0  0  0  0  0  0  0
   -2.9972    0.1260   -0.5223 C   0  0  0  0  0  0  0  0  0  0  0  0
   -2.6883    1.3102    0.2822 C   0  0  0  0  0  0  0  0  0  0  0  0
   -3.5999    2.3672    0.3631 C   0  0  0  0  0  0  0  0  0  0  0  0
   -2.0176   -1.1429   -0.5629 C   0  0  2  0  0  0  0  0  0  0  0  0
   -1.2502   -1.0090    0.7578 C   0  0  2  0  0  0  0  0  0  0  0  0
   -0.4991    0.3055    0.4701 C   0  0  1  0  0  0  0  0  0  0  0  0
   -1.3025    1.4754    1.0076 C   0  0  0  0  0  0  0  0  0  0  0  0
    0.8125    0.1656   -0.1779 N   0  0  2  0  0  4  0  0  0  0  0  0
   -0.9402   -1.0876   -1.7482 C   0  0  0  0  0  0  0  0  0  0  0  0
    0.5898   -0.8519   -1.3616 C   0  0  0  0  0  0  0  0  0  0  0  0
   -0.4861   -2.2275    1.2674 C   0  0  0  0  0  0  0  0  0  0  0  0
   -2.8057   -2.4621   -0.6325 C   0  0  0  0  0  0  0  0  0  0  0  0
    2.0258   -0.1341    0.6970 C   0  0  1  0  0  0  0  0  0  0  0  0
    3.3396   -0.2323   -0.0751 C   0  0  0  0  0  0  0  0  0  0  0  0
    2.1174    0.8597    1.8760 C   0  0  0  0  0  0  0  0  0  0  0  0
    2.3123    2.3262    1.5117 C   0  0  0  0  0  0  0  0  0  0  0  0
    3.6629    0.6907   -1.0927 C   0  0  0  0  0  0  0  0  0  0  0  0
    4.8699    0.5968   -1.7905 C   0  0  0  0  0  0  0  0  0  0  0  0
    5.7715   -0.4095   -1.4773 C   0  0  0  0  0  0  0  0  0  0  0  0
    5.4963   -1.3233   -0.4731 C   0  0  0  0  0  0  0  0  0  0  0  0
    4.2916   -1.2333    0.2282 C   0  0  0  0  0  0  0  0  0  0  0  0
    4.0277   -2.3992    1.4770 Cl  0  0  0  0  0  0  0  0  0  0  0  0
    6.9241   -0.4940   -2.1510 F   0  0  0  0  0  0  0  0  0  0  0  0
   -6.3161    1.1666   -1.9054 C   0  0  0  0  0  0  0  0  0  0  0  0
   -7.2990    1.1329   -2.5200 N   0  0  0  0  0  0  0  0  0  0  0  0
   -5.4995    3.1350   -0.2864 H   0  0  0  0  0  0  0  0  0  0  0  0
   -4.4656   -0.7224   -1.8836 H   0  0  0  0  0  0  0  0  0  0  0  0
   -3.3864    3.2489    0.9647 H   0  0  0  0  0  0  0  0  0  0  0  0
   -1.9723   -0.8373    1.5727 H   0  0  0  0  0  0  0  0  0  0  0  0
   -0.8140    0.6826   -0.5070 H   0  0  0  0  0  0  0  0  0  0  0  0
   -0.8565    2.4404    0.7421 H   0  0  0  0  0  0  0  0  0  0  0  0
   -1.4402    1.4194    2.0921 H   0  0  0  0  0  0  0  0  0  0  0  0
    1.0215    1.0661   -0.6262 H   0  0  0  0  0  0  0  0  0  0  0  0
   -1.2327   -0.3026   -2.4592 H   0  0  0  0  0  0  0  0  0  0  0  0
   -0.9750   -2.0221   -2.3228 H   0  0  0  0  0  0  0  0  0  0  0  0
    1.1289   -0.4395   -2.2207 H   0  0  0  0  0  0  0  0  0  0  0  0
    1.0648   -1.7943   -1.0789 H   0  0  0  0  0  0  0  0  0  0  0  0
   -1.1903   -3.0047    1.5877 H   0  0  0  0  0  0  0  0  0  0  0  0
    0.1677   -2.6926    0.5308 H   0  0  0  0  0  0  0  0  0  0  0  0
    0.1007   -1.9675    2.1541 H   0  0  0  0  0  0  0  0  0  0  0  0
   -3.5417   -2.5306    0.1763 H   0  0  0  0  0  0  0  0  0  0  0  0
   -2.1428   -3.3308   -0.5590 H   0  0  0  0  0  0  0  0  0  0  0  0
   -3.3393   -2.5662   -1.5830 H   0  0  0  0  0  0  0  0  0  0  0  0
    1.8039   -1.1121    1.1186 H   0  0  0  0  0  0  0  0  0  0  0  0
    1.2133    0.7746    2.4913 H   0  0  0  0  0  0  0  0  0  0  0  0
    2.9466    0.5622    2.5311 H   0  0  0  0  0  0  0  0  0  0  0  0
    2.2611    2.9409    2.4168 H   0  0  0  0  0  0  0  0  0  0  0  0
    1.5445    2.6872    0.8232 H   0  0  0  0  0  0  0  0  0  0  0  0
    3.2931    2.4994    1.0602 H   0  0  0  0  0  0  0  0  0  0  0  0
    3.0023    1.5126   -1.3569 H   0  0  0  0  0  0  0  0  0  0  0  0
    5.1224    1.3087   -2.5733 H   0  0  0  0  0  0  0  0  0  0  0  0
    6.2292   -2.0930   -0.2458 H   0  0  0  0  0  0  0  0  0  0  0  0
  1  2  1  0
  1  6  2  0
  2  3  2  0
  2 27  1  0
  3  4  1  0
  4  5  2  0
  4  7  1  0
  5  6  1  0
  5 10  1  0
  7  8  1  0
  7 12  1  0
  7 15  1  1
  8  9  1  0
  8 14  1  0
  9 10  1  0
  9 11  1  0
 11 13  1  0
 11 16  1  0
 12 13  1  0
 16 17  1  0
 16 18  1  0
 17 20  1  0
 17 24  2  0
 18 19  1  0
 20 21  2  0
 21 22  1  0
 22 23  2  0
 22 26  1  0
 23 24  1  0
 24 25  1  0
 27 28  3  0
  1 29  1  0
  3 30  1  0
  6 31  1  0
  8 32  1  1
  9 33  1  6
 10 34  1  0
 10 35  1  0
 11 36  1  6
 12 37  1  0
 12 38  1  0
 13 39  1  0
 13 40  1  0
 14 41  1  0
 14 42  1  0
 14 43  1  0
 15 44  1  0
 15 45  1  0
 15 46  1  0
 16 47  1  1
 18 48  1  0
 18 49  1  0
 19 50  1  0
 19 51  1  0
 19 52  1  0
 20 53  1  0
 21 54  1  0
 23 55  1  0
M  CHG  1  11   1
M  END
>  <CID>  (2) 
0

>  <Energy>  (2) 
168.55312356347164

$$$$
C24H26ClFN2
     RDKit          3D

 55 58  0  0  1  0  0  0  0  0999 V2000
   -4.6988    2.3434   -0.7984 C   0  0  0  0  0  0  0  0  0  0  0  0
   -5.0142    1.1120   -1.3873 C   0  0  0  0  0  0  0  0  0  0  0  0
   -4.1331    0.0239   -1.2834 C   0  0  0  0  0  0  0  0  0  0  0  0
   -2.9256    0.1477   -0.5817 C   0  0  0  0  0  0  0  0  0  0  0  0
   -2.5960    1.4537   -0.0097 C   0  0  0  0  0  0  0  0  0  0  0  0
   -3.4948    2.5195   -0.1163 C   0  0  0  0  0  0  0  0  0  0  0  0
   -1.9586   -1.1180   -0.4032 C   0  0  2  0  0  0  0  0  0  0  0  0
   -1.1746   -0.7657    0.8685 C   0  0  2  0  0  0  0  0  0  0  0  0
   -0.4145    0.4707    0.3539 C   0  0  1  0  0  0  0  0  0  0  0  0
   -1.2045    1.7296    0.6668 C   0  0  0  0  0  0  0  0  0  0  0  0
    0.8843    0.2033   -0.2723 N   0  0  2  0  0  4  0  0  0  0  0  0
   -0.8947   -1.2811   -1.5908 C   0  0  0  0  0  0  0  0  0  0  0  0
    0.6405   -1.0005   -1.2625 C   0  0  0  0  0  0  0  0  0  0  0  0
   -0.4084   -1.8884    1.5639 C   0  0  0  0  0  0  0  0  0  0  0  0
   -2.7584   -2.4212   -0.2339 C   0  0  0  0  0  0  0  0  0  0  0  0
    2.1325    0.0727    0.5985 C   0  0  1  0  0  0  0  0  0  0  0  0
    3.3819   -0.0835   -0.2684 C   0  0  0  0  0  0  0  0  0  0  0  0
    2.2753    1.3064    1.5231 C   0  0  0  0  0  0  0  0  0  0  0  0
    1.6343    1.1148    2.8926 C   0  0  0  0  0  0  0  0  0  0  0  0
    3.8021    0.9817   -1.0966 C   0  0  0  0  0  0  0  0  0  0  0  0
    4.9355    0.8577   -1.9024 C   0  0  0  0  0  0  0  0  0  0  0  0
    5.6615   -0.3246   -1.8908 C   0  0  0  0  0  0  0  0  0  0  0  0
    5.2794   -1.3881   -1.0874 C   0  0  0  0  0  0  0  0  0  0  0  0
    4.1469   -1.2699   -0.2787 C   0  0  0  0  0  0  0  0  0  0  0  0
    3.7269   -2.6416    0.6835 Cl  0  0  0  0  0  0  0  0  0  0  0  0
    6.7447   -0.4395   -2.6672 F   0  0  0  0  0  0  0  0  0  0  0  0
   -6.2484    0.9600   -2.1034 C   0  0  0  0  0  0  0  0  0  0  0  0
   -7.2388    0.8273   -2.6919 N   0  0  0  0  0  0  0  0  0  0  0  0
   -5.3921    3.1808   -0.8798 H   0  0  0  0  0  0  0  0  0  0  0  0
   -4.4177   -0.9156   -1.7534 H   0  0  0  0  0  0  0  0  0  0  0  0
   -3.2652    3.4934    0.3124 H   0  0  0  0  0  0  0  0  0  0  0  0
   -1.8839   -0.4488    1.6500 H   0  0  0  0  0  0  0  0  0  0  0  0
   -0.7353    0.6693   -0.6719 H   0  0  0  0  0  0  0  0  0  0  0  0
   -1.3442    1.8781    1.7418 H   0  0  0  0  0  0  0  0  0  0  0  0
   -0.7421    2.6224    0.2299 H   0  0  0  0  0  0  0  0  0  0  0  0
    1.0914    1.0042   -0.8849 H   0  0  0  0  0  0  0  0  0  0  0  0
   -0.9455   -2.3002   -1.9953 H   0  0  0  0  0  0  0  0  0  0  0  0
   -1.1862   -0.6267   -2.4239 H   0  0  0  0  0  0  0  0  0  0  0  0
    1.1036   -1.8864   -0.8248 H   0  0  0  0  0  0  0  0  0  0  0  0
    1.1796   -0.7492   -2.1822 H   0  0  0  0  0  0  0  0  0  0  0  0
   -1.1129   -2.5843    2.0346 H   0  0  0  0  0  0  0  0  0  0  0  0
    0.2160   -2.4880    0.9035 H   0  0  0  0  0  0  0  0  0  0  0  0
    0.2107   -1.4917    2.3733 H   0  0  0  0  0  0  0  0  0  0  0  0
   -2.1020   -3.2704   -0.0154 H   0  0  0  0  0  0  0  0  0  0  0  0
   -3.4864   -2.3398    0.5811 H   0  0  0  0  0  0  0  0  0  0  0  0
   -3.3027   -2.6849   -1.1466 H   0  0  0  0  0  0  0  0  0  0  0  0
    1.9782   -0.8105    1.2152 H   0  0  0  0  0  0  0  0  0  0  0  0
    1.8677    2.2067    1.0475 H   0  0  0  0  0  0  0  0  0  0  0  0
    3.3375    1.5129    1.7110 H   0  0  0  0  0  0  0  0  0  0  0  0
    2.0865    0.2661    3.4162 H   0  0  0  0  0  0  0  0  0  0  0  0
    1.7906    2.0077    3.5065 H   0  0  0  0  0  0  0  0  0  0  0  0
    0.5596    0.9402    2.8287 H   0  0  0  0  0  0  0  0  0  0  0  0
    3.2708    1.9319   -1.1156 H   0  0  0  0  0  0  0  0  0  0  0  0
    5.2670    1.6780   -2.5350 H   0  0  0  0  0  0  0  0  0  0  0  0
    5.8745   -2.2978   -1.1010 H   0  0  0  0  0  0  0  0  0  0  0  0
  1  2  1  0
  1  6  2  0
  2  3  2  0
  2 27  1  0
  3  4  1  0
  4  5  2  0
  4  7  1  0
  5  6  1  0
  5 10  1  0
  7  8  1  0
  7 12  1  0
  7 15  1  1
  8  9  1  0
  8 14  1  0
  9 10  1  0
  9 11  1  0
 11 13  1  0
 11 16  1  0
 12 13  1  0
 16 17  1  0
 16 18  1  0
 17 20  1  0
 17 24  2  0
 18 19  1  0
 20 21  2  0
 21 22  1  0
 22 23  2  0
 22 26  1  0
 23 24  1  0
 24 25  1  0
 27 28  3  0
  1 29  1  0
  3 30  1  0
  6 31  1  0
  8 32  1  1
  9 33  1  6
 10 34  1  0
 10 35  1  0
 11 36  1  6
 12 37  1  0
 12 38  1  0
 13 39  1  0
 13 40  1  0
 14 41  1  0
 14 42  1  0
 14 43  1  0
 15 44  1  0
 15 45  1  0
 15 46  1  0
 16 47  1  1
 18 48  1  0
 18 49  1  0
 19 50  1  0
 19 51  1  0
 19 52  1  0
 20 53  1  0
 21 54  1  0
 23 55  1  0
M  CHG  1  11   1
M  END
>  <CID>  (3) 
1

>  <Energy>  (3) 
169.33075075240225

$$$$
C24H26ClFN2
     RDKit          3D

 55 58  0  0  1  0  0  0  0  0999 V2000
   -4.8795    2.2375   -0.1507 C   0  0  0  0  0  0  0  0  0  0  0  0
   -5.1776    1.1647   -0.9955 C   0  0  0  0  0  0  0  0  0  0  0  0
   -4.2404    0.1309   -1.2064 C   0  0  0  0  0  0  0  0  0  0  0  0
   -3.0023    0.1414   -0.5488 C   0  0  0  0  0  0  0  0  0  0  0  0
   -2.6977    1.2946    0.3046 C   0  0  0  0  0  0  0  0  0  0  0  0
   -3.6435    2.3110    0.4914 C   0  0  0  0  0  0  0  0  0  0  0  0
   -2.0021   -1.1130   -0.6641 C   0  0  2  0  0  0  0  0  0  0  0  0
   -1.2419   -1.0214    0.6649 C   0  0  2  0  0  0  0  0  0  0  0  0
   -0.5043    0.3132    0.4182 C   0  0  1  0  0  0  0  0  0  0  0  0
   -1.3028    1.4569    1.0109 C   0  0  0  0  0  0  0  0  0  0  0  0
    0.8138    0.2008   -0.2203 N   0  0  2  0  0  4  0  0  0  0  0  0
   -0.9181   -0.9975   -1.8429 C   0  0  0  0  0  0  0  0  0  0  0  0
    0.6095   -0.7930   -1.4269 C   0  0  0  0  0  0  0  0  0  0  0  0
   -0.4757   -2.2500    1.1452 C   0  0  0  0  0  0  0  0  0  0  0  0
   -2.7651   -2.4418   -0.8020 C   0  0  0  0  0  0  0  0  0  0  0  0
    2.0052   -0.0829    0.6892 C   0  0  1  0  0  0  0  0  0  0  0  0
    3.3420   -0.2560   -0.0309 C   0  0  0  0  0  0  0  0  0  0  0  0
    2.0914    0.9835    1.8105 C   0  0  0  0  0  0  0  0  0  0  0  0
    2.3614    2.4136    1.3544 C   0  0  0  0  0  0  0  0  0  0  0  0
    3.7042    0.5650   -1.1185 C   0  0  0  0  0  0  0  0  0  0  0  0
    4.9393    0.4083   -1.7545 C   0  0  0  0  0  0  0  0  0  0  0  0
    5.8290   -0.5581   -1.3063 C   0  0  0  0  0  0  0  0  0  0  0  0
    5.5174   -1.3690   -0.2289 C   0  0  0  0  0  0  0  0  0  0  0  0
    4.2842   -1.2181    0.4090 C   0  0  0  0  0  0  0  0  0  0  0  0
    3.9825   -2.2432    1.7606 Cl  0  0  0  0  0  0  0  0  0  0  0  0
    7.0068   -0.7022   -1.9199 F   0  0  0  0  0  0  0  0  0  0  0  0
   -6.4567    1.1085   -1.6438 C   0  0  0  0  0  0  0  0  0  0  0  0
   -7.4859    1.0459   -2.1761 N   0  0  0  0  0  0  0  0  0  0  0  0
   -5.6204    3.0266    0.0164 H   0  0  0  0  0  0  0  0  0  0  0  0
   -4.5180   -0.6796   -1.8626 H   0  0  0  0  0  0  0  0  0  0  0  0
   -3.4341    3.1661    1.1346 H   0  0  0  0  0  0  0  0  0  0  0  0
   -1.9670   -0.8847    1.4821 H   0  0  0  0  0  0  0  0  0  0  0  0
   -0.8215    0.7273   -0.5465 H   0  0  0  0  0  0  0  0  0  0  0  0
   -1.4206    1.3619    2.0989 H   0  0  0  0  0  0  0  0  0  0  0  0
   -0.8708    2.4354    0.7718 H   0  0  0  0  0  0  0  0  0  0  0  0
    1.0212    1.1096   -0.6624 H   0  0  0  0  0  0  0  0  0  0  0  0
   -1.2002   -0.1720   -2.5138 H   0  0  0  0  0  0  0  0  0  0  0  0
   -0.9532   -1.9013   -2.4691 H   0  0  0  0  0  0  0  0  0  0  0  0
    1.0755   -1.7452   -1.1614 H   0  0  0  0  0  0  0  0  0  0  0  0
    1.1629   -0.3627   -2.2726 H   0  0  0  0  0  0  0  0  0  0  0  0
    0.2538   -2.6404    0.4333 H   0  0  0  0  0  0  0  0  0  0  0  0
   -1.1648   -3.0765    1.3541 H   0  0  0  0  0  0  0  0  0  0  0  0
    0.0338   -2.0284    2.0887 H   0  0  0  0  0  0  0  0  0  0  0  0
   -3.2958   -2.5032   -1.7592 H   0  0  0  0  0  0  0  0  0  0  0  0
   -2.0878   -3.3035   -0.7736 H   0  0  0  0  0  0  0  0  0  0  0  0
   -3.5021   -2.5669    0.0033 H   0  0  0  0  0  0  0  0  0  0  0  0
    1.7459   -1.0318    1.1587 H   0  0  0  0  0  0  0  0  0  0  0  0
    1.1633    0.9775    2.3943 H   0  0  0  0  0  0  0  0  0  0  0  0
    2.8837    0.7061    2.5186 H   0  0  0  0  0  0  0  0  0  0  0  0
    2.0555    3.1083    2.1427 H   0  0  0  0  0  0  0  0  0  0  0  0
    3.4267    2.5729    1.1832 H   0  0  0  0  0  0  0  0  0  0  0  0
    1.8242    2.6907    0.4441 H   0  0  0  0  0  0  0  0  0  0  0  0
    3.0513    1.3519   -1.4906 H   0  0  0  0  0  0  0  0  0  0  0  0
    5.2220    1.0395   -2.5952 H   0  0  0  0  0  0  0  0  0  0  0  0
    6.2432   -2.1074    0.1061 H   0  0  0  0  0  0  0  0  0  0  0  0
  1  2  1  0
  1  6  2  0
  2  3  2  0
  2 27  1  0
  3  4  1  0
  4  5  2  0
  4  7  1  0
  5  6  1  0
  5 10  1  0
  7  8  1  0
  7 12  1  0
  7 15  1  1
  8  9  1  0
  8 14  1  0
  9 10  1  0
  9 11  1  0
 11 13  1  0
 11 16  1  0
 12 13  1  0
 16 17  1  0
 16 18  1  0
 17 20  1  0
 17 24  2  0
 18 19  1  0
 20 21  2  0
 21 22  1  0
 22 23  2  0
 22 26  1  0
 23 24  1  0
 24 25  1  0
 27 28  3  0
  1 29  1  0
  3 30  1  0
  6 31  1  0
  8 32  1  1
  9 33  1  6
 10 34  1  0
 10 35  1  0
 11 36  1  6
 12 37  1  0
 12 38  1  0
 13 39  1  0
 13 40  1  0
 14 41  1  0
 14 42  1  0
 14 43  1  0
 15 44  1  0
 15 45  1  0
 15 46  1  0
 16 47  1  1
 18 48  1  0
 18 49  1  0
 19 50  1  0
 19 51  1  0
 19 52  1  0
 20 53  1  0
 21 54  1  0
 23 55  1  0
M  CHG  1  11   1
M  END
>  <CID>  (4) 
5

>  <Energy>  (4) 
170.0248965204439

$$$$
C24H26ClFN2
     RDKit          3D

 55 58  0  0  1  0  0  0  0  0999 V2000
   -3.8899    2.8061   -1.3635 C   0  0  0  0  0  0  0  0  0  0  0  0
   -4.6268    1.6147   -1.3426 C   0  0  0  0  0  0  0  0  0  0  0  0
   -4.0293    0.4118   -0.9335 C   0  0  0  0  0  0  0  0  0  0  0  0
   -2.6868    0.3831   -0.5309 C   0  0  0  0  0  0  0  0  0  0  0  0
   -1.9236    1.6300   -0.5991 C   0  0  0  0  0  0  0  0  0  0  0  0
   -2.5433    2.8176   -0.9994 C   0  0  0  0  0  0  0  0  0  0  0  0
   -2.0298   -0.9757    0.0072 C   0  0  2  0  0  0  0  0  0  0  0  0
   -0.8851   -0.4625    0.8961 C   0  0  2  0  0  0  0  0  0  0  0  0
   -0.0007    0.1977   -0.1775 C   0  0  1  0  0  0  0  0  0  0  0  0
   -0.3767    1.6677   -0.3117 C   0  0  0  0  0  0  0  0  0  0  0  0
    0.9608   -0.6885   -0.8673 N   0  0  2  0  0  4  0  0  0  0  0  0
   -1.3765   -1.8746   -1.1538 C   0  0  0  0  0  0  0  0  0  0  0  0
    0.2129   -2.0172   -1.1703 C   0  0  0  0  0  0  0  0  0  0  0  0
   -0.2679   -1.4362    1.8901 C   0  0  0  0  0  0  0  0  0  0  0  0
   -3.0397   -1.8123    0.8117 C   0  0  0  0  0  0  0  0  0  0  0  0
    2.4356   -0.6865   -0.4684 C   0  0  1  0  0  0  0  0  0  0  0  0
    2.8697    0.6810    0.0553 C   0  0  0  0  0  0  0  0  0  0  0  0
    2.8835   -1.8814    0.4037 C   0  0  0  0  0  0  0  0  0  0  0  0
    3.3034   -3.1059   -0.4091 C   0  0  0  0  0  0  0  0  0  0  0  0
    2.9465    0.9400    1.4387 C   0  0  0  0  0  0  0  0  0  0  0  0
    3.3272    2.1979    1.9123 C   0  0  0  0  0  0  0  0  0  0  0  0
    3.6264    3.2117    1.0134 C   0  0  0  0  0  0  0  0  0  0  0  0
    3.5449    2.9987   -0.3538 C   0  0  0  0  0  0  0  0  0  0  0  0
    3.1635    1.7433   -0.8298 C   0  0  0  0  0  0  0  0  0  0  0  0
    2.9983    1.5632   -2.5423 Cl  0  0  0  0  0  0  0  0  0  0  0  0
    3.9829    4.4162    1.4732 F   0  0  0  0  0  0  0  0  0  0  0  0
   -6.0049    1.6221   -1.7423 C   0  0  0  0  0  0  0  0  0  0  0  0
   -7.1174    1.6123   -2.0701 N   0  0  0  0  0  0  0  0  0  0  0  0
   -4.3640    3.7360   -1.6782 H   0  0  0  0  0  0  0  0  0  0  0  0
   -4.6380   -0.4903   -0.9294 H   0  0  0  0  0  0  0  0  0  0  0  0
   -1.9877    3.7525   -1.0476 H   0  0  0  0  0  0  0  0  0  0  0  0
   -1.2765    0.3239    1.5619 H   0  0  0  0  0  0  0  0  0  0  0  0
   -0.5430    0.1189   -1.1208 H   0  0  0  0  0  0  0  0  0  0  0  0
    0.1407    2.1532   -1.1466 H   0  0  0  0  0  0  0  0  0  0  0  0
   -0.1868    2.2247    0.6113 H   0  0  0  0  0  0  0  0  0  0  0  0
    1.0553   -0.2676   -1.8075 H   0  0  0  0  0  0  0  0  0  0  0  0
   -1.7827   -2.8930   -1.1040 H   0  0  0  0  0  0  0  0  0  0  0  0
   -1.6920   -1.4839   -2.1310 H   0  0  0  0  0  0  0  0  0  0  0  0
    0.5559   -2.3482   -2.1559 H   0  0  0  0  0  0  0  0  0  0  0  0
    0.5148   -2.7548   -0.4290 H   0  0  0  0  0  0  0  0  0  0  0  0
   -0.0672   -2.4265    1.4845 H   0  0  0  0  0  0  0  0  0  0  0  0
   -0.9550   -1.5920    2.7308 H   0  0  0  0  0  0  0  0  0  0  0  0
    0.6473   -1.0212    2.3186 H   0  0  0  0  0  0  0  0  0  0  0  0
   -3.4945   -1.2236    1.6164 H   0  0  0  0  0  0  0  0  0  0  0  0
   -3.8460   -2.1949    0.1774 H   0  0  0  0  0  0  0  0  0  0  0  0
   -2.5653   -2.6899    1.2639 H   0  0  0  0  0  0  0  0  0  0  0  0
    2.9613   -0.8415   -1.4192 H   0  0  0  0  0  0  0  0  0  0  0  0
    3.7717   -1.6036    0.9860 H   0  0  0  0  0  0  0  0  0  0  0  0
    2.1275   -2.1695    1.1321 H   0  0  0  0  0  0  0  0  0  0  0  0
    3.5995   -3.9165    0.2647 H   0  0  0  0  0  0  0  0  0  0  0  0
    2.5058   -3.4809   -1.0528 H   0  0  0  0  0  0  0  0  0  0  0  0
    4.1649   -2.8705   -1.0431 H   0  0  0  0  0  0  0  0  0  0  0  0
    2.7240    0.1714    2.1772 H   0  0  0  0  0  0  0  0  0  0  0  0
    3.3984    2.3951    2.9796 H   0  0  0  0  0  0  0  0  0  0  0  0
    3.7743    3.8184   -1.0296 H   0  0  0  0  0  0  0  0  0  0  0  0
  1  2  1  0
  1  6  2  0
  2  3  2  0
  2 27  1  0
  3  4  1  0
  4  5  2  0
  4  7  1  0
  5  6  1  0
  5 10  1  0
  7  8  1  0
  7 12  1  0
  7 15  1  1
  8  9  1  0
  8 14  1  0
  9 10  1  0
  9 11  1  0
 11 13  1  0
 11 16  1  0
 12 13  1  0
 16 17  1  0
 16 18  1  0
 17 20  1  0
 17 24  2  0
 18 19  1  0
 20 21  2  0
 21 22  1  0
 22 23  2  0
 22 26  1  0
 23 24  1  0
 24 25  1  0
 27 28  3  0
  1 29  1  0
  3 30  1  0
  6 31  1  0
  8 32  1  1
  9 33  1  6
 10 34  1  0
 10 35  1  0
 11 36  1  6
 12 37  1  0
 12 38  1  0
 13 39  1  0
 13 40  1  0
 14 41  1  0
 14 42  1  0
 14 43  1  0
 15 44  1  0
 15 45  1  0
 15 46  1  0
 16 47  1  6
 18 48  1  0
 18 49  1  0
 19 50  1  0
 19 51  1  0
 19 52  1  0
 20 53  1  0
 21 54  1  0
 23 55  1  0
M  CHG  1  11   1
M  END
>  <CID>  (5) 
4

>  <Energy>  (5) 
177.0579774478456

$$$$
C24H26ClFN2
     RDKit          3D

 55 58  0  0  1  0  0  0  0  0999 V2000
   -4.0362    2.7707   -1.1098 C   0  0  0  0  0  0  0  0  0  0  0  0
   -4.7220    1.5770   -1.3671 C   0  0  0  0  0  0  0  0  0  0  0  0
   -4.1255    0.3366   -1.0895 C   0  0  0  0  0  0  0  0  0  0  0  0
   -2.8362    0.2694   -0.5417 C   0  0  0  0  0  0  0  0  0  0  0  0
   -2.1227    1.5250   -0.3196 C   0  0  0  0  0  0  0  0  0  0  0  0
   -2.7408    2.7493   -0.5932 C   0  0  0  0  0  0  0  0  0  0  0  0
   -2.1871   -1.1462   -0.1646 C   0  0  2  0  0  0  0  0  0  0  0  0
   -1.1615   -0.7789    0.9269 C   0  0  2  0  0  0  0  0  0  0  0  0
   -0.1783    0.0878    0.1101 C   0  0  1  0  0  0  0  0  0  0  0  0
   -0.6242    1.5500    0.1573 C   0  0  0  0  0  0  0  0  0  0  0  0
    0.8496   -0.6338   -0.6771 N   0  0  2  0  0  4  0  0  0  0  0  0
   -1.3907   -1.8146   -1.3838 C   0  0  0  0  0  0  0  0  0  0  0  0
    0.1897   -1.9121   -1.2700 C   0  0  0  0  0  0  0  0  0  0  0  0
   -0.6293   -1.9059    1.8021 C   0  0  0  0  0  0  0  0  0  0  0  0
   -3.2490   -2.1286    0.3614 C   0  0  0  0  0  0  0  0  0  0  0  0
    2.2985   -0.7312   -0.2210 C   0  0  1  0  0  0  0  0  0  0  0  0
    2.9701    0.6408   -0.1858 C   0  0  0  0  0  0  0  0  0  0  0  0
    2.5401   -1.6791    0.9634 C   0  0  0  0  0  0  0  0  0  0  0  0
    4.0247   -1.9253    1.2256 C   0  0  0  0  0  0  0  0  0  0  0  0
    3.6760    1.0395   -1.3472 C   0  0  0  0  0  0  0  0  0  0  0  0
    4.3167    2.2778   -1.4199 C   0  0  0  0  0  0  0  0  0  0  0  0
    4.2607    3.1400   -0.3377 C   0  0  0  0  0  0  0  0  0  0  0  0
    3.5734    2.7891    0.8134 C   0  0  0  0  0  0  0  0  0  0  0  0
    2.9285    1.5495    0.8918 C   0  0  0  0  0  0  0  0  0  0  0  0
    2.0676    1.2430    2.3538 Cl  0  0  0  0  0  0  0  0  0  0  0  0
    4.8701    4.3285   -0.4076 F   0  0  0  0  0  0  0  0  0  0  0  0
   -6.0451    1.6202   -1.9208 C   0  0  0  0  0  0  0  0  0  0  0  0
   -7.1110    1.6404   -2.3774 N   0  0  0  0  0  0  0  0  0  0  0  0
   -4.5089    3.7296   -1.3228 H   0  0  0  0  0  0  0  0  0  0  0  0
   -4.6947   -0.5660   -1.3035 H   0  0  0  0  0  0  0  0  0  0  0  0
   -2.2217    3.6907   -0.4216 H   0  0  0  0  0  0  0  0  0  0  0  0
   -1.6596   -0.1329    1.6683 H   0  0  0  0  0  0  0  0  0  0  0  0
   -0.6372    0.1586   -0.8735 H   0  0  0  0  0  0  0  0  0  0  0  0
   -0.5863    1.9553    1.1731 H   0  0  0  0  0  0  0  0  0  0  0  0
   -0.0256    2.1812   -0.5102 H   0  0  0  0  0  0  0  0  0  0  0  0
    0.9836   -0.0502   -1.5184 H   0  0  0  0  0  0  0  0  0  0  0  0
   -1.6287   -1.2698   -2.3076 H   0  0  0  0  0  0  0  0  0  0  0  0
   -1.7570   -2.8360   -1.5489 H   0  0  0  0  0  0  0  0  0  0  0  0
    0.4807   -2.7634   -0.6556 H   0  0  0  0  0  0  0  0  0  0  0  0
    0.6300   -2.0492   -2.2638 H   0  0  0  0  0  0  0  0  0  0  0  0
   -1.4373   -2.3194    2.4170 H   0  0  0  0  0  0  0  0  0  0  0  0
    0.1072   -1.5207    2.5107 H   0  0  0  0  0  0  0  0  0  0  0  0
   -0.2012   -2.7432    1.2558 H   0  0  0  0  0  0  0  0  0  0  0  0
   -2.7964   -3.0679    0.6970 H   0  0  0  0  0  0  0  0  0  0  0  0
   -3.9706   -2.4026   -0.4152 H   0  0  0  0  0  0  0  0  0  0  0  0
   -3.8057   -1.7016    1.2032 H   0  0  0  0  0  0  0  0  0  0  0  0
    2.7644   -1.2594   -1.0665 H   0  0  0  0  0  0  0  0  0  0  0  0
    2.0900   -2.6555    0.7593 H   0  0  0  0  0  0  0  0  0  0  0  0
    2.0919   -1.3199    1.8861 H   0  0  0  0  0  0  0  0  0  0  0  0
    4.5375   -1.0112    1.5389 H   0  0  0  0  0  0  0  0  0  0  0  0
    4.1454   -2.6637    2.0249 H   0  0  0  0  0  0  0  0  0  0  0  0
    4.5226   -2.3132    0.3312 H   0  0  0  0  0  0  0  0  0  0  0  0
    3.7557    0.3832   -2.2145 H   0  0  0  0  0  0  0  0  0  0  0  0
    4.8663    2.5743   -2.3103 H   0  0  0  0  0  0  0  0  0  0  0  0
    3.5490    3.4940    1.6412 H   0  0  0  0  0  0  0  0  0  0  0  0
  1  2  1  0
  1  6  2  0
  2  3  2  0
  2 27  1  0
  3  4  1  0
  4  5  2  0
  4  7  1  0
  5  6  1  0
  5 10  1  0
  7  8  1  0
  7 12  1  0
  7 15  1  1
  8  9  1  0
  8 14  1  0
  9 10  1  0
  9 11  1  0
 11 13  1  0
 11 16  1  0
 12 13  1  0
 16 17  1  0
 16 18  1  0
 17 20  1  0
 17 24  2  0
 18 19  1  0
 20 21  2  0
 21 22  1  0
 22 23  2  0
 22 26  1  0
 23 24  1  0
 24 25  1  0
 27 28  3  0
  1 29  1  0
  3 30  1  0
  6 31  1  0
  8 32  1  1
  9 33  1  6
 10 34  1  0
 10 35  1  0
 11 36  1  6
 12 37  1  0
 12 38  1  0
 13 39  1  0
 13 40  1  0
 14 41  1  0
 14 42  1  0
 14 43  1  0
 15 44  1  0
 15 45  1  0
 15 46  1  0
 16 47  1  6
 18 48  1  0
 18 49  1  0
 19 50  1  0
 19 51  1  0
 19 52  1  0
 20 53  1  0
 21 54  1  0
 23 55  1  0
M  CHG  1  11   1
M  END
>  <CID>  (6) 
3

>  <Energy>  (6) 
177.05841216936165

$$$$
C24H26ClFN2
     RDKit          3D

 55 58  0  0  1  0  0  0  0  0999 V2000
   -4.8908    1.5329    0.9055 C   0  0  0  0  0  0  0  0  0  0  0  0
   -5.1802    0.6737   -0.1630 C   0  0  0  0  0  0  0  0  0  0  0  0
   -4.1678   -0.0993   -0.7537 C   0  0  0  0  0  0  0  0  0  0  0  0
   -2.8504   -0.0317   -0.2795 C   0  0  0  0  0  0  0  0  0  0  0  0
   -2.5610    0.9048    0.8109 C   0  0  0  0  0  0  0  0  0  0  0  0
   -3.5883    1.6554    1.3901 C   0  0  0  0  0  0  0  0  0  0  0  0
   -1.7121   -0.9768   -0.9068 C   0  0  2  0  0  0  0  0  0  0  0  0
   -0.6873   -1.0671    0.2368 C   0  0  2  0  0  0  0  0  0  0  0  0
   -0.2320    0.4092    0.3007 C   0  0  1  0  0  0  0  0  0  0  0  0
   -1.0885    1.1652    1.3067 C   0  0  0  0  0  0  0  0  0  0  0  0
    0.8243    0.8318   -0.6417 N   0  0  2  0  0  4  0  0  0  0  0  0
   -0.9581   -0.3383   -2.1728 C   0  0  0  0  0  0  0  0  0  0  0  0
    0.5641    0.0976   -1.9836 C   0  0  0  0  0  0  0  0  0  0  0  0
    0.3363   -2.1934    0.1765 C   0  0  0  0  0  0  0  0  0  0  0  0
   -2.2763   -2.3582   -1.2827 C   0  0  0  0  0  0  0  0  0  0  0  0
    2.2406    1.0309   -0.1224 C   0  0  1  0  0  0  0  0  0  0  0  0
    2.9091   -0.1375    0.5829 C   0  0  0  0  0  0  0  0  0  0  0  0
    3.1110    1.7786   -1.1628 C   0  0  0  0  0  0  0  0  0  0  0  0
    2.6853    3.2263   -1.3960 C   0  0  0  0  0  0  0  0  0  0  0  0
    2.7950   -0.1798    1.9963 C   0  0  0  0  0  0  0  0  0  0  0  0
    3.4039   -1.1861    2.7490 C   0  0  0  0  0  0  0  0  0  0  0  0
    4.1385   -2.1679    2.1061 C   0  0  0  0  0  0  0  0  0  0  0  0
    4.2767   -2.1610    0.7271 C   0  0  0  0  0  0  0  0  0  0  0  0
    3.6703   -1.1531   -0.0332 C   0  0  0  0  0  0  0  0  0  0  0  0
    3.9059   -1.2631   -1.7381 Cl  0  0  0  0  0  0  0  0  0  0  0  0
    4.7195   -3.1351    2.8245 F   0  0  0  0  0  0  0  0  0  0  0  0
   -6.5236    0.5823   -0.6592 C   0  0  0  0  0  0  0  0  0  0  0  0
   -7.6037    0.5067   -1.0745 N   0  0  0  0  0  0  0  0  0  0  0  0
   -5.6857    2.1245    1.3604 H   0  0  0  0  0  0  0  0  0  0  0  0
   -4.4368   -0.7557   -1.5792 H   0  0  0  0  0  0  0  0  0  0  0  0
   -3.3882    2.3482    2.2054 H   0  0  0  0  0  0  0  0  0  0  0  0
   -1.2250   -1.3064    1.1689 H   0  0  0  0  0  0  0  0  0  0  0  0
   -0.8646    0.9337   -0.4140 H   0  0  0  0  0  0  0  0  0  0  0  0
   -0.8719    2.2400    1.3009 H   0  0  0  0  0  0  0  0  0  0  0  0
   -0.9669    0.7727    2.3213 H   0  0  0  0  0  0  0  0  0  0  0  0
    0.5842    1.8040   -0.8845 H   0  0  0  0  0  0  0  0  0  0  0  0
   -0.9783   -1.0468   -3.0106 H   0  0  0  0  0  0  0  0  0  0  0  0
   -1.5219    0.5390   -2.5185 H   0  0  0  0  0  0  0  0  0  0  0  0
    1.2201   -0.7662   -2.0311 H   0  0  0  0  0  0  0  0  0  0  0  0
    0.8493    0.7919   -2.7808 H   0  0  0  0  0  0  0  0  0  0  0  0
    0.9127   -2.2444   -0.7435 H   0  0  0  0  0  0  0  0  0  0  0  0
   -0.1663   -3.1628    0.2761 H   0  0  0  0  0  0  0  0  0  0  0  0
    1.0168   -2.1339    1.0266 H   0  0  0  0  0  0  0  0  0  0  0  0
   -1.4868   -3.0357   -1.6253 H   0  0  0  0  0  0  0  0  0  0  0  0
   -2.7798   -2.8294   -0.4310 H   0  0  0  0  0  0  0  0  0  0  0  0
   -2.9959   -2.2927   -2.1053 H   0  0  0  0  0  0  0  0  0  0  0  0
    2.0859    1.7796    0.6689 H   0  0  0  0  0  0  0  0  0  0  0  0
    3.1069    1.2724   -2.1319 H   0  0  0  0  0  0  0  0  0  0  0  0
    4.1522    1.7958   -0.8160 H   0  0  0  0  0  0  0  0  0  0  0  0
    3.4010    3.7219   -2.0603 H   0  0  0  0  0  0  0  0  0  0  0  0
    1.7015    3.2889   -1.8693 H   0  0  0  0  0  0  0  0  0  0  0  0
    2.6567    3.7861   -0.4560 H   0  0  0  0  0  0  0  0  0  0  0  0
    2.2400    0.5841    2.5411 H   0  0  0  0  0  0  0  0  0  0  0  0
    3.3169   -1.2083    3.8326 H   0  0  0  0  0  0  0  0  0  0  0  0
    4.8634   -2.9476    0.2585 H   0  0  0  0  0  0  0  0  0  0  0  0
  1  2  1  0
  1  6  2  0
  2  3  2  0
  2 27  1  0
  3  4  1  0
  4  5  2  0
  4  7  1  0
  5  6  1  0
  5 10  1  0
  7  8  1  0
  7 12  1  0
  7 15  1  6
  8  9  1  0
  8 14  1  0
  9 10  1  0
  9 11  1  0
 11 13  1  0
 11 16  1  0
 12 13  1  0
 16 17  1  0
 16 18  1  0
 17 20  1  0
 17 24  2  0
 18 19  1  0
 20 21  2  0
 21 22  1  0
 22 23  2  0
 22 26  1  0
 23 24  1  0
 24 25  1  0
 27 28  3  0
  1 29  1  0
  3 30  1  0
  6 31  1  0
  8 32  1  1
  9 33  1  6
 10 34  1  0
 10 35  1  0
 11 36  1  6
 12 37  1  0
 12 38  1  0
 13 39  1  0
 13 40  1  0
 14 41  1  0
 14 42  1  0
 14 43  1  0
 15 44  1  0
 15 45  1  0
 15 46  1  0
 16 47  1  1
 18 48  1  0
 18 49  1  0
 19 50  1  0
 19 51  1  0
 19 52  1  0
 20 53  1  0
 21 54  1  0
 23 55  1  0
M  CHG  1  11   1
M  END
>  <CID>  (7) 
6

>  <Energy>  (7) 
178.80507848264122

$$$$
